MODEL 1
REMARK VINA RESULT:   -11.834      0.000      0.000
REMARK INTER + INTRA:         -17.880
REMARK INTER:                 -17.425
REMARK INTRA:                  -0.454
REMARK UNBOUND:                -0.511
REMARK  8 active torsions:
REMARK  status: ('A' for Active; 'I' for Inactive)
REMARK    1  A    between atoms: S_7  and  C_6 
REMARK    2  A    between atoms: S_7  and  N_8 
REMARK    3  A    between atoms: N_8  and  C_12 
REMARK    4  A    between atoms: N_8  and  C_11 
REMARK    5  A    between atoms: C_11  and  C_13 
REMARK    6  A    between atoms: C_12  and  C_15 
REMARK    7  A    between atoms: C_27  and  C_28 
REMARK    8  A    between atoms: C_32  and  S_34 
ROOT
ATOM      1  N   UNL d   1      18.625  -4.858  59.828  0.00  0.00    -0.292 N 
ENDROOT
BRANCH   1   2
ATOM      2  S   UNL d   1      18.811  -6.456  59.035  0.00  0.00     0.280 S 
ATOM      3  O   UNL d   1      19.560  -7.331  60.050  0.00  0.00    -0.199 OA
ATOM      4  O   UNL d   1      17.421  -7.111  59.009  0.00  0.00    -0.199 OA
BRANCH   2   5
ATOM      5  C   UNL d   1      19.685  -6.588  57.483  0.00  0.00     0.188 A 
ATOM      6  C   UNL d   1      21.050  -6.570  57.317  0.00  0.00     0.137 A 
ATOM      7  N   UNL d   1      21.294  -6.653  55.998  0.00  0.00    -0.353 N 
ATOM      8  C   UNL d   1      22.595  -6.672  55.342  0.00  0.00     0.156 C 
ATOM      9  C   UNL d   1      20.091  -6.713  55.393  0.00  0.00     0.210 A 
ATOM     10  N   UNL d   1      19.077  -6.670  56.282  0.00  0.00    -0.229 NA
ENDBRANCH   2   5
ENDBRANCH   1   2
BRANCH   1  11
ATOM     11  C   UNL d   1      18.024  -3.850  58.907  0.00  0.00     0.175 C 
BRANCH  11  12
ATOM     12  C   UNL d   1      16.548  -3.506  59.154  0.00  0.00    -0.034 A 
ATOM     13  C   UNL d   1      16.048  -2.178  59.317  0.00  0.00    -0.053 A 
ATOM     14  C   UNL d   1      16.887  -0.920  59.290  0.00  0.00     0.049 C 
ATOM     15  C   UNL d   1      14.672  -1.974  59.550  0.00  0.00     0.019 A 
ATOM     16  C   UNL d   1      13.755  -3.040  59.654  0.00  0.00    -0.025 A 
ATOM     17  C   UNL d   1      14.277  -4.340  59.528  0.00  0.00     0.013 A 
ATOM     18  C   UNL d   1      15.631  -4.559  59.291  0.00  0.00     0.010 A 
BRANCH  16  19
ATOM     19  C   UNL d   1      12.277  -2.802  59.908  0.00  0.00    -0.025 A 
ATOM     20  C   UNL d   1      11.439  -3.830  60.411  0.00  0.00     0.012 A 
ATOM     21  C   UNL d   1      10.079  -3.608  60.643  0.00  0.00     0.002 A 
ATOM     22  C   UNL d   1       9.514  -2.364  60.380  0.00  0.00     0.023 A 
ATOM     23  C   UNL d   1      10.306  -1.331  59.885  0.00  0.00     0.059 A 
ATOM     24  C   UNL d   1      11.672  -1.546  59.650  0.00  0.00     0.035 A 
BRANCH  23  25
ATOM     25  S   UNL d   1       9.568   0.268  59.534  0.00  0.00     0.171 S 
ATOM     26  O   UNL d   1      10.309   0.865  58.326  0.00  0.00    -0.223 OA
ATOM     27  C   UNL d   1       7.796   0.576  59.299  0.00  0.00     0.167 C 
ATOM     28  O   UNL d   1      10.068   1.246  60.608  0.00  0.00    -0.223 OA
ENDBRANCH  23  25
ENDBRANCH  16  19
ENDBRANCH  11  12
ENDBRANCH   1  11
BRANCH   1  29
ATOM     29  C   UNL d   1      18.114  -4.894  61.233  0.00  0.00     0.126 C 
ATOM     30  C   UNL d   1      18.203  -6.288  61.885  0.00  0.00     0.038 C 
BRANCH  29  31
ATOM     31  C   UNL d   1      18.881  -3.926  62.122  0.00  0.00    -0.021 A 
ATOM     32  C   UNL d   1      18.352  -2.773  62.729  0.00  0.00    -0.013 A 
ATOM     33  C   UNL d   1      16.948  -2.253  62.677  0.00  0.00     0.057 C 
ATOM     34  S   UNL d   1      19.571  -2.012  63.605  0.00  0.00    -0.100 SA
ATOM     35  C   UNL d   1      20.773  -3.122  63.232  0.00  0.00    -0.020 A 
ATOM     36  C   UNL d   1      22.187  -3.055  63.704  0.00  0.00     0.056 C 
ATOM     37  C   UNL d   1      20.244  -4.109  62.414  0.00  0.00     0.024 A 
ENDBRANCH  29  31
ENDBRANCH   1  29
TORSDOF 8
ENDMDL
MODEL 2
REMARK VINA RESULT:   -11.519      1.431      2.255
REMARK INTER + INTRA:         -17.417
REMARK INTER:                 -16.260
REMARK INTRA:                  -1.157
REMARK UNBOUND:                -0.511
REMARK  8 active torsions:
REMARK  status: ('A' for Active; 'I' for Inactive)
REMARK    1  A    between atoms: S_7  and  C_6 
REMARK    2  A    between atoms: S_7  and  N_8 
REMARK    3  A    between atoms: N_8  and  C_12 
REMARK    4  A    between atoms: N_8  and  C_11 
REMARK    5  A    between atoms: C_11  and  C_13 
REMARK    6  A    between atoms: C_12  and  C_15 
REMARK    7  A    between atoms: C_27  and  C_28 
REMARK    8  A    between atoms: C_32  and  S_34 
ROOT
ATOM      1  N   UNL d   1      17.949  -3.943  59.056  0.00  0.00    -0.292 N 
ENDROOT
BRANCH   1   2
ATOM      2  S   UNL d   1      18.125  -5.290  57.884  0.00  0.00     0.280 S 
ATOM      3  O   UNL d   1      17.278  -6.439  58.452  0.00  0.00    -0.199 OA
ATOM      4  O   UNL d   1      17.334  -4.900  56.626  0.00  0.00    -0.199 OA
BRANCH   2   5
ATOM      5  C   UNL d   1      19.741  -5.958  57.524  0.00  0.00     0.188 A 
ATOM      6  C   UNL d   1      20.452  -5.778  56.360  0.00  0.00     0.137 A 
ATOM      7  N   UNL d   1      21.594  -6.476  56.477  0.00  0.00    -0.353 N 
ATOM      8  C   UNL d   1      22.665  -6.584  55.495  0.00  0.00     0.156 C 
ATOM      9  C   UNL d   1      21.557  -7.064  57.690  0.00  0.00     0.210 A 
ATOM     10  N   UNL d   1      20.424  -6.768  58.359  0.00  0.00    -0.229 NA
ENDBRANCH   2   5
ENDBRANCH   1   2
BRANCH   1  11
ATOM     11  C   UNL d   1      17.168  -4.356  60.259  0.00  0.00     0.175 C 
BRANCH  11  12
ATOM     12  C   UNL d   1      15.674  -3.997  60.248  0.00  0.00    -0.034 A 
ATOM     13  C   UNL d   1      14.651  -4.794  60.847  0.00  0.00    -0.053 A 
ATOM     14  C   UNL d   1      14.874  -6.109  61.561  0.00  0.00     0.049 C 
ATOM     15  C   UNL d   1      13.307  -4.376  60.771  0.00  0.00     0.019 A 
ATOM     16  C   UNL d   1      12.917  -3.198  60.100  0.00  0.00    -0.025 A 
ATOM     17  C   UNL d   1      13.937  -2.450  59.486  0.00  0.00     0.013 A 
ATOM     18  C   UNL d   1      15.270  -2.845  59.557  0.00  0.00     0.010 A 
BRANCH  16  19
ATOM     19  C   UNL d   1      11.463  -2.764  60.026  0.00  0.00    -0.025 A 
ATOM     20  C   UNL d   1      10.406  -3.684  60.249  0.00  0.00     0.012 A 
ATOM     21  C   UNL d   1       9.070  -3.283  60.179  0.00  0.00     0.002 A 
ATOM     22  C   UNL d   1       8.745  -1.962  59.885  0.00  0.00     0.023 A 
ATOM     23  C   UNL d   1       9.757  -1.031  59.660  0.00  0.00     0.059 A 
ATOM     24  C   UNL d   1      11.101  -1.426  59.729  0.00  0.00     0.035 A 
BRANCH  23  25
ATOM     25  S   UNL d   1       9.333   0.669  59.266  0.00  0.00     0.171 S 
ATOM     26  O   UNL d   1      10.236   1.114  58.103  0.00  0.00    -0.223 OA
ATOM     27  C   UNL d   1       7.659   1.280  58.927  0.00  0.00     0.167 C 
ATOM     28  O   UNL d   1       9.935   1.555  60.367  0.00  0.00    -0.223 OA
ENDBRANCH  23  25
ENDBRANCH  16  19
ENDBRANCH  11  12
ENDBRANCH   1  11
BRANCH   1  29
ATOM     29  C   UNL d   1      19.180  -3.126  59.284  0.00  0.00     0.126 C 
ATOM     30  C   UNL d   1      19.384  -2.014  58.237  0.00  0.00     0.038 C 
BRANCH  29  31
ATOM     31  C   UNL d   1      19.153  -2.463  60.653  0.00  0.00    -0.021 A 
ATOM     32  C   UNL d   1      18.496  -1.260  60.971  0.00  0.00    -0.013 A 
ATOM     33  C   UNL d   1      17.666  -0.388  60.079  0.00  0.00     0.057 C 
ATOM     34  S   UNL d   1      18.752  -0.914  62.598  0.00  0.00    -0.100 SA
ATOM     35  C   UNL d   1      19.688  -2.270  62.919  0.00  0.00    -0.020 A 
ATOM     36  C   UNL d   1      20.286  -2.612  64.243  0.00  0.00     0.056 C 
ATOM     37  C   UNL d   1      19.819  -3.019  61.760  0.00  0.00     0.024 A 
ENDBRANCH  29  31
ENDBRANCH   1  29
TORSDOF 8
ENDMDL
MODEL 3
REMARK VINA RESULT:   -11.349      2.569      5.188
REMARK INTER + INTRA:         -17.168
REMARK INTER:                 -16.564
REMARK INTRA:                  -0.604
REMARK UNBOUND:                -0.511
REMARK  8 active torsions:
REMARK  status: ('A' for Active; 'I' for Inactive)
REMARK    1  A    between atoms: S_7  and  C_6 
REMARK    2  A    between atoms: S_7  and  N_8 
REMARK    3  A    between atoms: N_8  and  C_12 
REMARK    4  A    between atoms: N_8  and  C_11 
REMARK    5  A    between atoms: C_11  and  C_13 
REMARK    6  A    between atoms: C_12  and  C_15 
REMARK    7  A    between atoms: C_27  and  C_28 
REMARK    8  A    between atoms: C_32  and  S_34 
ROOT
ATOM      1  N   UNL d   1      17.684  -3.631  60.555  0.00  0.00    -0.292 N 
ENDROOT
BRANCH   1   2
ATOM      2  S   UNL d   1      18.236  -2.088  61.284  0.00  0.00     0.280 S 
ATOM      3  O   UNL d   1      19.199  -1.473  60.257  0.00  0.00    -0.199 OA
ATOM      4  O   UNL d   1      17.048  -1.115  61.234  0.00  0.00    -0.199 OA
BRANCH   2   5
ATOM      5  C   UNL d   1      19.081  -2.093  62.857  0.00  0.00     0.188 A 
ATOM      6  C   UNL d   1      20.301  -2.672  63.120  0.00  0.00     0.137 A 
ATOM      7  N   UNL d   1      20.558  -2.487  64.426  0.00  0.00    -0.353 N 
ATOM      8  C   UNL d   1      21.737  -2.924  65.163  0.00  0.00     0.156 C 
ATOM      9  C   UNL d   1      19.503  -1.815  64.929  0.00  0.00     0.210 A 
ATOM     10  N   UNL d   1      18.572  -1.561  63.987  0.00  0.00    -0.229 NA
ENDBRANCH   2   5
ENDBRANCH   1   2
BRANCH   1  11
ATOM     11  C   UNL d   1      16.885  -3.402  59.316  0.00  0.00     0.175 C 
BRANCH  11  12
ATOM     12  C   UNL d   1      15.374  -3.208  59.514  0.00  0.00    -0.034 A 
ATOM     13  C   UNL d   1      14.493  -4.216  60.012  0.00  0.00    -0.053 A 
ATOM     14  C   UNL d   1      14.901  -5.619  60.399  0.00  0.00     0.049 C 
ATOM     15  C   UNL d   1      13.117  -3.935  60.146  0.00  0.00     0.019 A 
ATOM     16  C   UNL d   1      12.559  -2.691  59.785  0.00  0.00    -0.025 A 
ATOM     17  C   UNL d   1      13.441  -1.729  59.262  0.00  0.00     0.013 A 
ATOM     18  C   UNL d   1      14.802  -1.986  59.129  0.00  0.00     0.010 A 
BRANCH  16  19
ATOM     19  C   UNL d   1      11.075  -2.407  59.934  0.00  0.00    -0.025 A 
ATOM     20  C   UNL d   1      10.189  -3.373  60.478  0.00  0.00     0.012 A 
ATOM     21  C   UNL d   1       8.824  -3.110  60.613  0.00  0.00     0.002 A 
ATOM     22  C   UNL d   1       8.299  -1.886  60.211  0.00  0.00     0.023 A 
ATOM     23  C   UNL d   1       9.139  -0.913  59.672  0.00  0.00     0.059 A 
ATOM     24  C   UNL d   1      10.511  -1.170  59.534  0.00  0.00     0.035 A 
BRANCH  23  25
ATOM     25  S   UNL d   1       8.455   0.660  59.142  0.00  0.00     0.171 S 
ATOM     26  O   UNL d   1       9.065   1.754  60.033  0.00  0.00    -0.223 OA
ATOM     27  C   UNL d   1       8.448   1.279  57.437  0.00  0.00     0.167 C 
ATOM     28  O   UNL d   1       7.011   0.727  59.663  0.00  0.00    -0.223 OA
ENDBRANCH  23  25
ENDBRANCH  16  19
ENDBRANCH  11  12
ENDBRANCH   1  11
BRANCH   1  29
ATOM     29  C   UNL d   1      18.701  -4.727  60.524  0.00  0.00     0.126 C 
ATOM     30  C   UNL d   1      18.465  -5.818  61.586  0.00  0.00     0.038 C 
BRANCH  29  31
ATOM     31  C   UNL d   1      18.728  -5.412  59.166  0.00  0.00    -0.021 A 
ATOM     32  C   UNL d   1      19.116  -4.816  57.952  0.00  0.00    -0.013 A 
ATOM     33  C   UNL d   1      19.610  -3.422  57.714  0.00  0.00     0.057 C 
ATOM     34  S   UNL d   1      18.973  -5.952  56.719  0.00  0.00    -0.100 SA
ATOM     35  C   UNL d   1      18.425  -7.202  57.695  0.00  0.00    -0.020 A 
ATOM     36  C   UNL d   1      18.079  -8.576  57.226  0.00  0.00     0.056 C 
ATOM     37  C   UNL d   1      18.342  -6.755  59.005  0.00  0.00     0.024 A 
ENDBRANCH  29  31
ENDBRANCH   1  29
TORSDOF 8
ENDMDL
MODEL 4
REMARK VINA RESULT:   -10.633      2.168      5.194
REMARK INTER + INTRA:         -16.117
REMARK INTER:                 -16.244
REMARK INTRA:                   0.128
REMARK UNBOUND:                -0.511
REMARK  8 active torsions:
REMARK  status: ('A' for Active; 'I' for Inactive)
REMARK    1  A    between atoms: S_7  and  C_6 
REMARK    2  A    between atoms: S_7  and  N_8 
REMARK    3  A    between atoms: N_8  and  C_12 
REMARK    4  A    between atoms: N_8  and  C_11 
REMARK    5  A    between atoms: C_11  and  C_13 
REMARK    6  A    between atoms: C_12  and  C_15 
REMARK    7  A    between atoms: C_27  and  C_28 
REMARK    8  A    between atoms: C_32  and  S_34 
ROOT
ATOM      1  N   UNL d   1      18.377  -4.547  58.992  0.00  0.00    -0.292 N 
ENDROOT
BRANCH   1   2
ATOM      2  S   UNL d   1      18.471  -2.844  59.549  0.00  0.00     0.280 S 
ATOM      3  O   UNL d   1      19.757  -2.281  58.926  0.00  0.00    -0.199 OA
ATOM      4  O   UNL d   1      17.381  -2.063  58.798  0.00  0.00    -0.199 OA
BRANCH   2   5
ATOM      5  C   UNL d   1      18.528  -2.475  61.295  0.00  0.00     0.188 A 
ATOM      6  C   UNL d   1      19.624  -2.609  62.116  0.00  0.00     0.137 A 
ATOM      7  N   UNL d   1      19.237  -2.269  63.357  0.00  0.00    -0.353 N 
ATOM      8  C   UNL d   1      20.057  -2.253  64.562  0.00  0.00     0.156 C 
ATOM      9  C   UNL d   1      17.932  -1.944  63.272  0.00  0.00     0.210 A 
ATOM     10  N   UNL d   1      17.463  -2.066  62.014  0.00  0.00    -0.229 NA
ENDBRANCH   2   5
ENDBRANCH   1   2
BRANCH   1  11
ATOM     11  C   UNL d   1      17.464  -5.358  59.848  0.00  0.00     0.175 C 
BRANCH  11  12
ATOM     12  C   UNL d   1      16.035  -4.819  60.010  0.00  0.00    -0.034 A 
ATOM     13  C   UNL d   1      15.280  -4.895  61.220  0.00  0.00    -0.053 A 
ATOM     14  C   UNL d   1      15.756  -5.527  62.509  0.00  0.00     0.049 C 
ATOM     15  C   UNL d   1      13.969  -4.377  61.258  0.00  0.00     0.019 A 
ATOM     16  C   UNL d   1      13.351  -3.796  60.130  0.00  0.00    -0.025 A 
ATOM     17  C   UNL d   1      14.101  -3.767  58.941  0.00  0.00     0.013 A 
ATOM     18  C   UNL d   1      15.399  -4.269  58.888  0.00  0.00     0.010 A 
BRANCH  16  19
ATOM     19  C   UNL d   1      11.938  -3.245  60.189  0.00  0.00    -0.025 A 
ATOM     20  C   UNL d   1      10.844  -4.057  60.584  0.00  0.00     0.012 A 
ATOM     21  C   UNL d   1       9.544  -3.548  60.635  0.00  0.00     0.002 A 
ATOM     22  C   UNL d   1       9.293  -2.222  60.295  0.00  0.00     0.023 A 
ATOM     23  C   UNL d   1      10.343  -1.395  59.902  0.00  0.00     0.059 A 
ATOM     24  C   UNL d   1      11.650  -1.899  59.848  0.00  0.00     0.035 A 
BRANCH  23  25
ATOM     25  S   UNL d   1      10.011   0.311  59.449  0.00  0.00     0.171 S 
ATOM     26  O   UNL d   1      11.149   0.775  58.526  0.00  0.00    -0.223 OA
ATOM     27  C   UNL d   1       8.453   0.927  58.754  0.00  0.00     0.167 C 
ATOM     28  O   UNL d   1      10.347   1.179  60.671  0.00  0.00    -0.223 OA
ENDBRANCH  23  25
ENDBRANCH  16  19
ENDBRANCH  11  12
ENDBRANCH   1  11
BRANCH   1  29
ATOM     29  C   UNL d   1      18.277  -4.733  57.511  0.00  0.00     0.126 C 
ATOM     30  C   UNL d   1      18.611  -3.463  56.706  0.00  0.00     0.038 C 
BRANCH  29  31
ATOM     31  C   UNL d   1      19.210  -5.835  57.033  0.00  0.00    -0.021 A 
ATOM     32  C   UNL d   1      18.936  -7.214  57.061  0.00  0.00    -0.013 A 
ATOM     33  C   UNL d   1      17.691  -7.908  57.524  0.00  0.00     0.057 C 
ATOM     34  S   UNL d   1      20.262  -8.045  56.442  0.00  0.00    -0.100 SA
ATOM     35  C   UNL d   1      21.191  -6.683  56.131  0.00  0.00    -0.020 A 
ATOM     36  C   UNL d   1      22.564  -6.690  55.545  0.00  0.00     0.056 C 
ATOM     37  C   UNL d   1      20.483  -5.552  56.506  0.00  0.00     0.024 A 
ENDBRANCH  29  31
ENDBRANCH   1  29
TORSDOF 8
ENDMDL
MODEL 5
REMARK VINA RESULT:   -10.588      1.838      2.703
REMARK INTER + INTRA:         -16.051
REMARK INTER:                 -14.789
REMARK INTRA:                  -1.262
REMARK UNBOUND:                -0.511
REMARK  8 active torsions:
REMARK  status: ('A' for Active; 'I' for Inactive)
REMARK    1  A    between atoms: S_7  and  C_6 
REMARK    2  A    between atoms: S_7  and  N_8 
REMARK    3  A    between atoms: N_8  and  C_12 
REMARK    4  A    between atoms: N_8  and  C_11 
REMARK    5  A    between atoms: C_11  and  C_13 
REMARK    6  A    between atoms: C_12  and  C_15 
REMARK    7  A    between atoms: C_27  and  C_28 
REMARK    8  A    between atoms: C_32  and  S_34 
ROOT
ATOM      1  N   UNL d   1      17.914  -6.253  59.346  0.00  0.00    -0.292 N 
ENDROOT
BRANCH   1   2
ATOM      2  S   UNL d   1      18.287  -7.493  58.105  0.00  0.00     0.280 S 
ATOM      3  O   UNL d   1      18.895  -8.674  58.877  0.00  0.00    -0.199 OA
ATOM      4  O   UNL d   1      16.946  -8.075  57.631  0.00  0.00    -0.199 OA
BRANCH   2   5
ATOM      5  C   UNL d   1      19.405  -7.111  56.765  0.00  0.00     0.188 A 
ATOM      6  C   UNL d   1      20.465  -7.882  56.349  0.00  0.00     0.137 A 
ATOM      7  N   UNL d   1      21.071  -7.222  55.348  0.00  0.00    -0.353 N 
ATOM      8  C   UNL d   1      22.241  -7.650  54.591  0.00  0.00     0.156 C 
ATOM      9  C   UNL d   1      20.383  -6.075  55.179  0.00  0.00     0.210 A 
ATOM     10  N   UNL d   1      19.352  -5.974  56.042  0.00  0.00    -0.229 NA
ENDBRANCH   2   5
ENDBRANCH   1   2
BRANCH   1  11
ATOM     11  C   UNL d   1      16.605  -6.515  60.013  0.00  0.00     0.175 C 
BRANCH  11  12
ATOM     12  C   UNL d   1      15.591  -5.362  59.983  0.00  0.00    -0.034 A 
ATOM     13  C   UNL d   1      14.570  -5.163  60.962  0.00  0.00    -0.053 A 
ATOM     14  C   UNL d   1      14.321  -6.057  62.157  0.00  0.00     0.049 C 
ATOM     15  C   UNL d   1      13.683  -4.075  60.835  0.00  0.00     0.019 A 
ATOM     16  C   UNL d   1      13.743  -3.171  59.754  0.00  0.00    -0.025 A 
ATOM     17  C   UNL d   1      14.732  -3.410  58.782  0.00  0.00     0.013 A 
ATOM     18  C   UNL d   1      15.621  -4.475  58.896  0.00  0.00     0.010 A 
BRANCH  16  19
ATOM     19  C   UNL d   1      12.777  -2.006  59.631  0.00  0.00    -0.025 A 
ATOM     20  C   UNL d   1      13.229  -0.705  59.290  0.00  0.00     0.012 A 
ATOM     21  C   UNL d   1      12.339   0.366  59.179  0.00  0.00     0.002 A 
ATOM     22  C   UNL d   1      10.979   0.177  59.404  0.00  0.00     0.023 A 
ATOM     23  C   UNL d   1      10.499  -1.087  59.741  0.00  0.00     0.059 A 
ATOM     24  C   UNL d   1      11.387  -2.167  59.854  0.00  0.00     0.035 A 
BRANCH  23  25
ATOM     25  S   UNL d   1       8.745  -1.323  60.045  0.00  0.00     0.171 S 
ATOM     26  O   UNL d   1       8.593  -1.891  61.465  0.00  0.00    -0.223 OA
ATOM     27  C   UNL d   1       7.463  -0.059  59.819  0.00  0.00     0.167 C 
ATOM     28  O   UNL d   1       8.310  -2.568  59.258  0.00  0.00    -0.223 OA
ENDBRANCH  23  25
ENDBRANCH  16  19
ENDBRANCH  11  12
ENDBRANCH   1  11
BRANCH   1  29
ATOM     29  C   UNL d   1      19.061  -5.851  60.218  0.00  0.00     0.126 C 
ATOM     30  C   UNL d   1      20.438  -6.053  59.556  0.00  0.00     0.038 C 
BRANCH  29  31
ATOM     31  C   UNL d   1      18.959  -4.388  60.620  0.00  0.00    -0.021 A 
ATOM     32  C   UNL d   1      18.904  -3.295  59.736  0.00  0.00    -0.013 A 
ATOM     33  C   UNL d   1      18.901  -3.307  58.238  0.00  0.00     0.057 C 
ATOM     34  S   UNL d   1      18.808  -1.875  60.633  0.00  0.00    -0.100 SA
ATOM     35  C   UNL d   1      18.832  -2.617  62.138  0.00  0.00    -0.020 A 
ATOM     36  C   UNL d   1      18.775  -1.909  63.451  0.00  0.00     0.056 C 
ATOM     37  C   UNL d   1      18.917  -3.990  61.968  0.00  0.00     0.024 A 
ENDBRANCH  29  31
ENDBRANCH   1  29
TORSDOF 8
ENDMDL
MODEL 6
REMARK VINA RESULT:   -10.587      2.148      5.068
REMARK INTER + INTRA:         -16.050
REMARK INTER:                 -15.499
REMARK INTRA:                  -0.551
REMARK UNBOUND:                -0.511
REMARK  8 active torsions:
REMARK  status: ('A' for Active; 'I' for Inactive)
REMARK    1  A    between atoms: S_7  and  C_6 
REMARK    2  A    between atoms: S_7  and  N_8 
REMARK    3  A    between atoms: N_8  and  C_12 
REMARK    4  A    between atoms: N_8  and  C_11 
REMARK    5  A    between atoms: C_11  and  C_13 
REMARK    6  A    between atoms: C_12  and  C_15 
REMARK    7  A    between atoms: C_27  and  C_28 
REMARK    8  A    between atoms: C_32  and  S_34 
ROOT
ATOM      1  N   UNL d   1      18.560  -6.109  59.825  0.00  0.00    -0.292 N 
ENDROOT
BRANCH   1   2
ATOM      2  S   UNL d   1      18.380  -5.757  61.575  0.00  0.00     0.280 S 
ATOM      3  O   UNL d   1      16.865  -5.703  61.826  0.00  0.00    -0.199 OA
ATOM      4  O   UNL d   1      18.788  -7.028  62.335  0.00  0.00    -0.199 OA
BRANCH   2   5
ATOM      5  C   UNL d   1      19.079  -4.265  62.264  0.00  0.00     0.188 A 
ATOM      6  C   UNL d   1      20.350  -4.124  62.769  0.00  0.00     0.137 A 
ATOM      7  N   UNL d   1      20.463  -2.864  63.223  0.00  0.00    -0.353 N 
ATOM      8  C   UNL d   1      21.631  -2.252  63.842  0.00  0.00     0.156 C 
ATOM      9  C   UNL d   1      19.274  -2.272  62.995  0.00  0.00     0.210 A 
ATOM     10  N   UNL d   1      18.396  -3.111  62.409  0.00  0.00    -0.229 NA
ENDBRANCH   2   5
ENDBRANCH   1   2
BRANCH   1  11
ATOM     11  C   UNL d   1      18.551  -4.862  59.006  0.00  0.00     0.175 C 
BRANCH  11  12
ATOM     12  C   UNL d   1      17.286  -3.997  59.111  0.00  0.00    -0.034 A 
ATOM     13  C   UNL d   1      17.292  -2.573  59.221  0.00  0.00    -0.053 A 
ATOM     14  C   UNL d   1      18.531  -1.707  59.270  0.00  0.00     0.049 C 
ATOM     15  C   UNL d   1      16.071  -1.875  59.321  0.00  0.00     0.019 A 
ATOM     16  C   UNL d   1      14.823  -2.532  59.339  0.00  0.00    -0.025 A 
ATOM     17  C   UNL d   1      14.844  -3.936  59.268  0.00  0.00     0.013 A 
ATOM     18  C   UNL d   1      16.040  -4.640  59.162  0.00  0.00     0.010 A 
BRANCH  16  19
ATOM     19  C   UNL d   1      13.517  -1.765  59.450  0.00  0.00    -0.025 A 
ATOM     20  C   UNL d   1      13.481  -0.350  59.345  0.00  0.00     0.012 A 
ATOM     21  C   UNL d   1      12.279   0.354  59.449  0.00  0.00     0.002 A 
ATOM     22  C   UNL d   1      11.082  -0.324  59.661  0.00  0.00     0.023 A 
ATOM     23  C   UNL d   1      11.079  -1.713  59.770  0.00  0.00     0.059 A 
ATOM     24  C   UNL d   1      12.282  -2.426  59.667  0.00  0.00     0.035 A 
BRANCH  23  25
ATOM     25  S   UNL d   1       9.534  -2.581  60.059  0.00  0.00     0.171 S 
ATOM     26  O   UNL d   1       8.937  -2.040  61.369  0.00  0.00    -0.223 OA
ATOM     27  C   UNL d   1       8.181  -2.739  58.862  0.00  0.00     0.167 C 
ATOM     28  O   UNL d   1       9.890  -3.994  60.544  0.00  0.00    -0.223 OA
ENDBRANCH  23  25
ENDBRANCH  16  19
ENDBRANCH  11  12
ENDBRANCH   1  11
BRANCH   1  29
ATOM     29  C   UNL d   1      19.579  -7.149  59.481  0.00  0.00     0.126 C 
ATOM     30  C   UNL d   1      19.112  -8.589  59.771  0.00  0.00     0.038 C 
BRANCH  29  31
ATOM     31  C   UNL d   1      19.957  -7.081  58.009  0.00  0.00    -0.021 A 
ATOM     32  C   UNL d   1      19.103  -7.359  56.927  0.00  0.00    -0.013 A 
ATOM     33  C   UNL d   1      17.656  -7.745  56.958  0.00  0.00     0.057 C 
ATOM     34  S   UNL d   1      19.960  -7.163  55.493  0.00  0.00    -0.100 SA
ATOM     35  C   UNL d   1      21.411  -6.726  56.215  0.00  0.00    -0.020 A 
ATOM     36  C   UNL d   1      22.671  -6.393  55.488  0.00  0.00     0.056 C 
ATOM     37  C   UNL d   1      21.253  -6.726  57.592  0.00  0.00     0.024 A 
ENDBRANCH  29  31
ENDBRANCH   1  29
TORSDOF 8
ENDMDL
MODEL 7
REMARK VINA RESULT:   -10.222      1.670      4.840
REMARK INTER + INTRA:         -15.513
REMARK INTER:                 -15.908
REMARK INTRA:                   0.395
REMARK UNBOUND:                -0.511
REMARK  8 active torsions:
REMARK  status: ('A' for Active; 'I' for Inactive)
REMARK    1  A    between atoms: S_7  and  C_6 
REMARK    2  A    between atoms: S_7  and  N_8 
REMARK    3  A    between atoms: N_8  and  C_12 
REMARK    4  A    between atoms: N_8  and  C_11 
REMARK    5  A    between atoms: C_11  and  C_13 
REMARK    6  A    between atoms: C_12  and  C_15 
REMARK    7  A    between atoms: C_27  and  C_28 
REMARK    8  A    between atoms: C_32  and  S_34 
ROOT
ATOM      1  N   UNL d   1      18.393  -5.167  59.617  0.00  0.00    -0.292 N 
ENDROOT
BRANCH   1   2
ATOM      2  S   UNL d   1      18.187  -5.067  61.396  0.00  0.00     0.280 S 
ATOM      3  O   UNL d   1      16.677  -4.906  61.624  0.00  0.00    -0.199 OA
ATOM      4  O   UNL d   1      18.449  -6.473  61.960  0.00  0.00    -0.199 OA
BRANCH   2   5
ATOM      5  C   UNL d   1      18.999  -3.772  62.320  0.00  0.00     0.188 A 
ATOM      6  C   UNL d   1      20.274  -3.819  62.834  0.00  0.00     0.137 A 
ATOM      7  N   UNL d   1      20.484  -2.666  63.491  0.00  0.00    -0.353 N 
ATOM      8  C   UNL d   1      21.693  -2.261  64.195  0.00  0.00     0.156 C 
ATOM      9  C   UNL d   1      19.347  -1.951  63.373  0.00  0.00     0.210 A 
ATOM     10  N   UNL d   1      18.409  -2.608  62.661  0.00  0.00    -0.229 NA
ENDBRANCH   2   5
ENDBRANCH   1   2
BRANCH   1  11
ATOM     11  C   UNL d   1      17.916  -3.928  58.936  0.00  0.00     0.175 C 
BRANCH  11  12
ATOM     12  C   UNL d   1      16.449  -3.546  59.183  0.00  0.00    -0.034 A 
ATOM     13  C   UNL d   1      16.005  -2.226  59.503  0.00  0.00    -0.053 A 
ATOM     14  C   UNL d   1      16.901  -1.018  59.663  0.00  0.00     0.049 C 
ATOM     15  C   UNL d   1      14.633  -1.986  59.721  0.00  0.00     0.019 A 
ATOM     16  C   UNL d   1      13.664  -3.010  59.657  0.00  0.00    -0.025 A 
ATOM     17  C   UNL d   1      14.131  -4.307  59.379  0.00  0.00     0.013 A 
ATOM     18  C   UNL d   1      15.481  -4.561  59.155  0.00  0.00     0.010 A 
BRANCH  16  19
ATOM     19  C   UNL d   1      12.191  -2.733  59.897  0.00  0.00    -0.025 A 
ATOM     20  C   UNL d   1      11.324  -3.736  60.401  0.00  0.00     0.012 A 
ATOM     21  C   UNL d   1       9.968  -3.479  60.619  0.00  0.00     0.002 A 
ATOM     22  C   UNL d   1       9.435  -2.224  60.344  0.00  0.00     0.023 A 
ATOM     23  C   UNL d   1      10.258  -1.214  59.847  0.00  0.00     0.059 A 
ATOM     24  C   UNL d   1      11.619  -1.464  59.626  0.00  0.00     0.035 A 
BRANCH  23  25
ATOM     25  S   UNL d   1       9.562   0.400  59.479  0.00  0.00     0.171 S 
ATOM     26  O   UNL d   1      10.307   0.956  58.254  0.00  0.00    -0.223 OA
ATOM     27  C   UNL d   1       7.797   0.756  59.258  0.00  0.00     0.167 C 
ATOM     28  O   UNL d   1      10.103   1.380  60.532  0.00  0.00    -0.223 OA
ENDBRANCH  23  25
ENDBRANCH  16  19
ENDBRANCH  11  12
ENDBRANCH   1  11
BRANCH   1  29
ATOM     29  C   UNL d   1      19.689  -5.750  59.152  0.00  0.00     0.126 C 
ATOM     30  C   UNL d   1      20.246  -6.840  60.089  0.00  0.00     0.038 C 
BRANCH  29  31
ATOM     31  C   UNL d   1      19.549  -6.367  57.769  0.00  0.00    -0.021 A 
ATOM     32  C   UNL d   1      18.498  -7.200  57.344  0.00  0.00    -0.013 A 
ATOM     33  C   UNL d   1      17.288  -7.640  58.111  0.00  0.00     0.057 C 
ATOM     34  S   UNL d   1      18.773  -7.649  55.746  0.00  0.00    -0.100 SA
ATOM     35  C   UNL d   1      20.211  -6.803  55.571  0.00  0.00    -0.020 A 
ATOM     36  C   UNL d   1      21.043  -6.760  54.333  0.00  0.00     0.056 C 
ATOM     37  C   UNL d   1      20.505  -6.153  56.760  0.00  0.00     0.024 A 
ENDBRANCH  29  31
ENDBRANCH   1  29
TORSDOF 8
ENDMDL
MODEL 8
REMARK VINA RESULT:   -10.111      2.060      5.009
REMARK INTER + INTRA:         -15.350
REMARK INTER:                 -15.753
REMARK INTRA:                   0.403
REMARK UNBOUND:                -0.511
REMARK  8 active torsions:
REMARK  status: ('A' for Active; 'I' for Inactive)
REMARK    1  A    between atoms: S_7  and  C_6 
REMARK    2  A    between atoms: S_7  and  N_8 
REMARK    3  A    between atoms: N_8  and  C_12 
REMARK    4  A    between atoms: N_8  and  C_11 
REMARK    5  A    between atoms: C_11  and  C_13 
REMARK    6  A    between atoms: C_12  and  C_15 
REMARK    7  A    between atoms: C_27  and  C_28 
REMARK    8  A    between atoms: C_32  and  S_34 
ROOT
ATOM      1  N   UNL d   1      17.614  -4.024  59.778  0.00  0.00    -0.292 N 
ENDROOT
BRANCH   1   2
ATOM      2  S   UNL d   1      18.890  -4.796  60.775  0.00  0.00     0.280 S 
ATOM      3  O   UNL d   1      18.233  -6.043  61.386  0.00  0.00    -0.199 OA
ATOM      4  O   UNL d   1      19.910  -5.412  59.805  0.00  0.00    -0.199 OA
BRANCH   2   5
ATOM      5  C   UNL d   1      19.647  -3.892  62.117  0.00  0.00     0.188 A 
ATOM      6  C   UNL d   1      19.005  -3.038  62.982  0.00  0.00     0.137 A 
ATOM      7  N   UNL d   1      19.935  -2.535  63.812  0.00  0.00    -0.353 N 
ATOM      8  C   UNL d   1      19.726  -1.588  64.899  0.00  0.00     0.156 C 
ATOM      9  C   UNL d   1      21.110  -3.079  63.438  0.00  0.00     0.210 A 
ATOM     10  N   UNL d   1      20.967  -3.917  62.391  0.00  0.00    -0.229 NA
ENDBRANCH   2   5
ENDBRANCH   1   2
BRANCH   1  11
ATOM     11  C   UNL d   1      16.915  -2.936  60.522  0.00  0.00     0.175 C 
BRANCH  11  12
ATOM     12  C   UNL d   1      15.395  -2.852  60.322  0.00  0.00    -0.034 A 
ATOM     13  C   UNL d   1      14.480  -3.896  60.661  0.00  0.00    -0.053 A 
ATOM     14  C   UNL d   1      14.864  -5.237  61.246  0.00  0.00     0.049 C 
ATOM     15  C   UNL d   1      13.101  -3.720  60.426  0.00  0.00     0.019 A 
ATOM     16  C   UNL d   1      12.576  -2.548  59.842  0.00  0.00    -0.025 A 
ATOM     17  C   UNL d   1      13.500  -1.550  59.482  0.00  0.00     0.013 A 
ATOM     18  C   UNL d   1      14.864  -1.706  59.713  0.00  0.00     0.010 A 
BRANCH  16  19
ATOM     19  C   UNL d   1      11.088  -2.376  59.595  0.00  0.00    -0.025 A 
ATOM     20  C   UNL d   1      10.223  -3.495  59.489  0.00  0.00     0.012 A 
ATOM     21  C   UNL d   1       8.854  -3.334  59.260  0.00  0.00     0.002 A 
ATOM     22  C   UNL d   1       8.307  -2.062  59.127  0.00  0.00     0.023 A 
ATOM     23  C   UNL d   1       9.127  -0.939  59.224  0.00  0.00     0.059 A 
ATOM     24  C   UNL d   1      10.501  -1.093  59.455  0.00  0.00     0.035 A 
BRANCH  23  25
ATOM     25  S   UNL d   1       8.418   0.700  59.037  0.00  0.00     0.171 S 
ATOM     26  O   UNL d   1       9.056   1.605  60.104  0.00  0.00    -0.223 OA
ATOM     27  C   UNL d   1       8.348   1.642  57.488  0.00  0.00     0.167 C 
ATOM     28  O   UNL d   1       6.994   0.649  59.611  0.00  0.00    -0.223 OA
ENDBRANCH  23  25
ENDBRANCH  16  19
ENDBRANCH  11  12
ENDBRANCH   1  11
BRANCH   1  29
ATOM     29  C   UNL d   1      17.987  -3.754  58.355  0.00  0.00     0.126 C 
ATOM     30  C   UNL d   1      19.171  -2.780  58.202  0.00  0.00     0.038 C 
BRANCH  29  31
ATOM     31  C   UNL d   1      18.358  -5.040  57.632  0.00  0.00    -0.021 A 
ATOM     32  C   UNL d   1      17.720  -6.284  57.787  0.00  0.00    -0.013 A 
ATOM     33  C   UNL d   1      16.542  -6.627  58.647  0.00  0.00     0.057 C 
ATOM     34  S   UNL d   1      18.481  -7.412  56.796  0.00  0.00    -0.100 SA
ATOM     35  C   UNL d   1      19.615  -6.351  56.162  0.00  0.00    -0.020 A 
ATOM     36  C   UNL d   1      20.667  -6.706  55.165  0.00  0.00     0.056 C 
ATOM     37  C   UNL d   1      19.423  -5.094  56.714  0.00  0.00     0.024 A 
ENDBRANCH  29  31
ENDBRANCH   1  29
TORSDOF 8
ENDMDL
MODEL 9
REMARK VINA RESULT:    -9.584      2.686      4.933
REMARK INTER + INTRA:         -14.577
REMARK INTER:                 -14.066
REMARK INTRA:                  -0.511
REMARK UNBOUND:                -0.511
REMARK  8 active torsions:
REMARK  status: ('A' for Active; 'I' for Inactive)
REMARK    1  A    between atoms: S_7  and  C_6 
REMARK    2  A    between atoms: S_7  and  N_8 
REMARK    3  A    between atoms: N_8  and  C_12 
REMARK    4  A    between atoms: N_8  and  C_11 
REMARK    5  A    between atoms: C_11  and  C_13 
REMARK    6  A    between atoms: C_12  and  C_15 
REMARK    7  A    between atoms: C_27  and  C_28 
REMARK    8  A    between atoms: C_32  and  S_34 
ROOT
ATOM      1  N   UNL d   1      16.062  -3.799  60.892  0.00  0.00    -0.292 N 
ENDROOT
BRANCH   1   2
ATOM      2  S   UNL d   1      17.470  -2.691  60.809  0.00  0.00     0.280 S 
ATOM      3  O   UNL d   1      18.057  -2.882  59.402  0.00  0.00    -0.199 OA
ATOM      4  O   UNL d   1      16.915  -1.260  60.735  0.00  0.00    -0.199 OA
BRANCH   2   5
ATOM      5  C   UNL d   1      18.818  -2.868  61.968  0.00  0.00     0.188 A 
ATOM      6  C   UNL d   1      18.929  -2.235  63.184  0.00  0.00     0.137 A 
ATOM      7  N   UNL d   1      20.103  -2.607  63.722  0.00  0.00    -0.353 N 
ATOM      8  C   UNL d   1      20.654  -2.193  65.006  0.00  0.00     0.156 C 
ATOM      9  C   UNL d   1      20.680  -3.441  62.834  0.00  0.00     0.210 A 
ATOM     10  N   UNL d   1      19.914  -3.619  61.738  0.00  0.00    -0.229 NA
ENDBRANCH   2   5
ENDBRANCH   1   2
BRANCH   1  11
ATOM     11  C   UNL d   1      15.291  -3.810  59.614  0.00  0.00     0.175 C 
BRANCH  11  12
ATOM     12  C   UNL d   1      13.960  -3.046  59.624  0.00  0.00    -0.034 A 
ATOM     13  C   UNL d   1      13.826  -1.659  59.310  0.00  0.00    -0.053 A 
ATOM     14  C   UNL d   1      14.965  -0.734  58.941  0.00  0.00     0.049 C 
ATOM     15  C   UNL d   1      12.555  -1.051  59.359  0.00  0.00     0.019 A 
ATOM     16  C   UNL d   1      11.391  -1.757  59.732  0.00  0.00    -0.025 A 
ATOM     17  C   UNL d   1      11.555  -3.112  60.074  0.00  0.00     0.013 A 
ATOM     18  C   UNL d   1      12.801  -3.729  60.024  0.00  0.00     0.010 A 
BRANCH  16  19
ATOM     19  C   UNL d   1      10.031  -1.086  59.782  0.00  0.00    -0.025 A 
ATOM     20  C   UNL d   1       9.084  -1.410  60.787  0.00  0.00     0.012 A 
ATOM     21  C   UNL d   1       7.832  -0.792  60.830  0.00  0.00     0.002 A 
ATOM     22  C   UNL d   1       7.484   0.161  59.878  0.00  0.00     0.023 A 
ATOM     23  C   UNL d   1       8.388   0.504  58.875  0.00  0.00     0.059 A 
ATOM     24  C   UNL d   1       9.647  -0.112  58.826  0.00  0.00     0.035 A 
BRANCH  23  25
ATOM     25  S   UNL d   1       7.928   1.723  57.640  0.00  0.00     0.171 S 
ATOM     26  O   UNL d   1       7.850   1.003  56.284  0.00  0.00    -0.223 OA
ATOM     27  C   UNL d   1       6.504   2.842  57.750  0.00  0.00     0.167 C 
ATOM     28  O   UNL d   1       9.171   2.583  57.365  0.00  0.00    -0.223 OA
ENDBRANCH  23  25
ENDBRANCH  16  19
ENDBRANCH  11  12
ENDBRANCH   1  11
BRANCH   1  29
ATOM     29  C   UNL d   1      16.320  -5.117  61.550  0.00  0.00     0.126 C 
ATOM     30  C   UNL d   1      15.035  -5.894  61.898  0.00  0.00     0.038 C 
BRANCH  29  31
ATOM     31  C   UNL d   1      17.170  -6.016  60.664  0.00  0.00    -0.021 A 
ATOM     32  C   UNL d   1      18.338  -6.691  61.060  0.00  0.00    -0.013 A 
ATOM     33  C   UNL d   1      18.990  -6.716  62.409  0.00  0.00     0.057 C 
ATOM     34  S   UNL d   1      18.941  -7.552  59.745  0.00  0.00    -0.100 SA
ATOM     35  C   UNL d   1      17.741  -7.086  58.668  0.00  0.00    -0.020 A 
ATOM     36  C   UNL d   1      17.653  -7.507  57.238  0.00  0.00     0.056 C 
ATOM     37  C   UNL d   1      16.846  -6.248  59.316  0.00  0.00     0.024 A 
ENDBRANCH  29  31
ENDBRANCH   1  29
TORSDOF 8
ENDMDL
