REMARK  8 active torsions:
REMARK  status: ('A' for Active; 'I' for Inactive)
REMARK    1  A    between atoms: S_7  and  C_6 
REMARK    2  A    between atoms: S_7  and  N_8 
REMARK    3  A    between atoms: N_8  and  C_12 
REMARK    4  A    between atoms: N_8  and  C_11 
REMARK    5  A    between atoms: C_11  and  C_13 
REMARK    6  A    between atoms: C_12  and  C_15 
REMARK    7  A    between atoms: C_27  and  C_28 
REMARK    8  A    between atoms: C_32  and  S_34 
ROOT
ATOM      1  N   UNL d   1      -2.493  -2.829   1.417  0.00  0.00    -0.292 N 
ENDROOT
BRANCH   1   2
ATOM      2  S   UNL d   1      -2.195  -1.627   0.119  0.00  0.00     0.280 S 
ATOM      3  O   UNL d   1      -1.408  -0.490   0.788  0.00  0.00    -0.199 OA
ATOM      4  O   UNL d   1      -1.145  -2.233  -0.825  0.00  0.00    -0.199 OA
BRANCH   2   5
ATOM      5  C   UNL d   1      -3.570  -0.878  -0.740  0.00  0.00     0.188 A 
ATOM      6  C   UNL d   1      -3.691  -0.729  -2.102  0.00  0.00     0.137 A 
ATOM      7  N   UNL d   1      -4.847  -0.084  -2.333  0.00  0.00    -0.353 N 
ATOM      8  C   UNL d   1      -5.402   0.294  -3.626  0.00  0.00     0.156 C 
ATOM      9  C   UNL d   1      -5.398   0.150  -1.125  0.00  0.00     0.210 A 
ATOM     10  N   UNL d   1      -4.632  -0.323  -0.121  0.00  0.00    -0.229 NA
ENDBRANCH   2   5
ENDBRANCH   1   2
BRANCH   1  11
ATOM     11  C   UNL d   1      -3.670  -3.693   1.110  0.00  0.00     0.175 C 
BRANCH  11  12
ATOM     12  C   UNL d   1      -3.603  -4.480  -0.207  0.00  0.00    -0.034 A 
ATOM     13  C   UNL d   1      -4.527  -4.324  -1.285  0.00  0.00    -0.053 A 
ATOM     14  C   UNL d   1      -5.712  -3.384  -1.290  0.00  0.00     0.049 C 
ATOM     15  C   UNL d   1      -4.380  -5.106  -2.449  0.00  0.00     0.019 A 
ATOM     16  C   UNL d   1      -3.357  -6.067  -2.592  0.00  0.00    -0.025 A 
ATOM     17  C   UNL d   1      -2.483  -6.229  -1.502  0.00  0.00     0.013 A 
ATOM     18  C   UNL d   1      -2.610  -5.461  -0.348  0.00  0.00     0.010 A 
BRANCH  16  19
ATOM     19  C   UNL d   1      -3.215  -6.902  -3.852  0.00  0.00    -0.025 A 
ATOM     20  C   UNL d   1      -2.319  -8.000  -3.913  0.00  0.00     0.012 A 
ATOM     21  C   UNL d   1      -2.189  -8.766  -5.074  0.00  0.00     0.002 A 
ATOM     22  C   UNL d   1      -2.941  -8.464  -6.205  0.00  0.00     0.023 A 
ATOM     23  C   UNL d   1      -3.831  -7.392  -6.182  0.00  0.00     0.059 A 
ATOM     24  C   UNL d   1      -3.967  -6.619  -5.020  0.00  0.00     0.035 A 
BRANCH  23  25
ATOM     25  S   UNL d   1      -4.788  -6.997  -7.649  0.00  0.00     0.171 S 
ATOM     26  O   UNL d   1      -6.169  -6.508  -7.183  0.00  0.00    -0.223 OA
ATOM     27  C   UNL d   1      -4.244  -5.908  -8.994  0.00  0.00     0.167 C 
ATOM     28  O   UNL d   1      -5.224  -8.328  -8.280  0.00  0.00    -0.223 OA
ENDBRANCH  23  25
ENDBRANCH  16  19
ENDBRANCH  11  12
ENDBRANCH   1  11
BRANCH   1  29
ATOM     29  C   UNL d   1      -1.273  -3.499   1.964  0.00  0.00     0.126 C 
ATOM     30  C   UNL d   1      -0.195  -2.512   2.453  0.00  0.00     0.038 C 
BRANCH  29  31
ATOM     31  C   UNL d   1      -1.623  -4.407   3.133  0.00  0.00    -0.021 A 
ATOM     32  C   UNL d   1      -2.317  -4.021   4.294  0.00  0.00    -0.013 A 
ATOM     33  C   UNL d   1      -2.888  -2.679   4.636  0.00  0.00     0.057 C 
ATOM     34  S   UNL d   1      -2.461  -5.355   5.310  0.00  0.00    -0.100 SA
ATOM     35  C   UNL d   1      -1.656  -6.429   4.303  0.00  0.00    -0.020 A 
ATOM     36  C   UNL d   1      -1.406  -7.870   4.601  0.00  0.00     0.056 C 
ATOM     37  C   UNL d   1      -1.258  -5.765   3.153  0.00  0.00     0.024 A 
ENDBRANCH  29  31
ENDBRANCH   1  29
TORSDOF 8
