MODEL 1
REMARK VINA RESULT:    -8.354      0.000      0.000
REMARK INTER + INTRA:         -13.748
REMARK INTER:                 -11.847
REMARK INTRA:                  -1.901
REMARK UNBOUND:                -0.999
REMARK  9 active torsions:
REMARK  status: ('A' for Active; 'I' for Inactive)
REMARK    1  A    between atoms: C_3  and  C_2 
REMARK    2  A    between atoms: C_3  and  C_5 
REMARK    3  A    between atoms: C_3  and  N_4 
REMARK    4  A    between atoms: S_6  and  N_4 
REMARK    5  A    between atoms: N_4  and  C_7 
REMARK    6  A    between atoms: S_6  and  C_10 
REMARK    7  A    between atoms: C_7  and  C_18 
REMARK    8  A    between atoms: C_28  and  C_29 
REMARK    9  A    between atoms: C_33  and  S_35 
ROOT
ATOM      1  N   UNL d   1      54.610  17.531  -3.847  0.00  0.00    -0.192 NA
ENDROOT
BRANCH   1   2
ATOM      2  S   UNL d   1      55.141  19.196  -3.436  0.00  0.00     0.263 S 
ATOM      3  O   UNL d   1      55.294  19.910  -4.788  0.00  0.00    -0.204 OA
ATOM      4  O   UNL d   1      56.611  19.078  -3.007  0.00  0.00    -0.204 OA
BRANCH   2   5
ATOM      5  C   UNL d   1      54.190  20.182  -2.280  0.00  0.00     0.183 A 
ATOM      6  C   UNL d   1      53.769  19.771  -1.036  0.00  0.00     0.136 A 
ATOM      7  N   UNL d   1      53.082  20.787  -0.488  0.00  0.00    -0.353 N 
ATOM      8  C   UNL d   1      52.443  20.813   0.821  0.00  0.00     0.156 C 
ATOM      9  C   UNL d   1      53.096  21.784  -1.393  0.00  0.00     0.210 A 
ATOM     10  N   UNL d   1      53.770  21.442  -2.510  0.00  0.00    -0.229 NA
ENDBRANCH   2   5
ENDBRANCH   1   2
BRANCH   1  11
ATOM     11  C   UNL d   1      54.005  16.861  -2.680  0.00  0.00     0.147 C 
BRANCH  11  12
ATOM     12  C   UNL d   1      52.539  16.547  -2.933  0.00  0.00    -0.038 A 
ATOM     13  C   UNL d   1      51.915  15.299  -2.676  0.00  0.00    -0.054 A 
ATOM     14  C   UNL d   1      52.620  14.087  -2.110  0.00  0.00     0.049 C 
ATOM     15  C   UNL d   1      50.543  15.144  -2.959  0.00  0.00     0.019 A 
ATOM     16  C   UNL d   1      49.756  16.188  -3.500  0.00  0.00    -0.025 A 
ATOM     17  C   UNL d   1      50.411  17.415  -3.746  0.00  0.00     0.013 A 
ATOM     18  C   UNL d   1      51.764  17.584  -3.471  0.00  0.00     0.010 A 
BRANCH  16  19
ATOM     19  C   UNL d   1      48.278  16.003  -3.805  0.00  0.00    -0.025 A 
ATOM     20  C   UNL d   1      47.770  14.769  -4.288  0.00  0.00     0.012 A 
ATOM     21  C   UNL d   1      46.412  14.600  -4.567  0.00  0.00     0.002 A 
ATOM     22  C   UNL d   1      45.518  15.647  -4.373  0.00  0.00     0.023 A 
ATOM     23  C   UNL d   1      45.977  16.873  -3.897  0.00  0.00     0.059 A 
ATOM     24  C   UNL d   1      47.339  17.052  -3.618  0.00  0.00     0.035 A 
BRANCH  23  25
ATOM     25  S   UNL d   1      44.819  18.225  -3.651  0.00  0.00     0.171 S 
ATOM     26  O   UNL d   1      45.199  19.340  -4.637  0.00  0.00    -0.223 OA
ATOM     27  C   UNL d   1      43.011  18.076  -3.658  0.00  0.00     0.167 C 
ATOM     28  O   UNL d   1      45.219  18.935  -2.348  0.00  0.00    -0.223 OA
ENDBRANCH  23  25
ENDBRANCH  16  19
ENDBRANCH  11  12
ENDBRANCH   1  11
BRANCH   1  29
ATOM     29  C   UNL d   1      55.652  16.767  -4.593  0.00  0.00     0.108 C 
BRANCH  29  30
ATOM     30  C   UNL d   1      55.581  16.994  -6.108  0.00  0.00    -0.026 A 
ATOM     31  C   UNL d   1      56.632  17.046  -7.059  0.00  0.00    -0.013 A 
ATOM     32  C   UNL d   1      58.116  16.911  -6.890  0.00  0.00     0.057 C 
ATOM     33  S   UNL d   1      55.972  17.349  -8.579  0.00  0.00    -0.100 SA
ATOM     34  C   UNL d   1      54.379  17.431  -8.080  0.00  0.00    -0.020 A 
ATOM     35  C   UNL d   1      53.205  17.689  -8.964  0.00  0.00     0.056 C 
ATOM     36  C   UNL d   1      54.325  17.224  -6.711  0.00  0.00     0.024 A 
ENDBRANCH  29  30
BRANCH  29  37
ATOM     37  C   UNL d   1      55.797  15.281  -4.168  0.00  0.00     0.021 C 
ATOM     38  C   UNL d   1      57.243  14.789  -4.257  0.00  0.00     0.007 C 
ENDBRANCH  29  37
ENDBRANCH   1  29
TORSDOF 9
ENDMDL
MODEL 2
REMARK VINA RESULT:    -7.766      1.828      2.559
REMARK INTER + INTRA:         -12.851
REMARK INTER:                 -10.485
REMARK INTRA:                  -2.366
REMARK UNBOUND:                -0.999
REMARK  9 active torsions:
REMARK  status: ('A' for Active; 'I' for Inactive)
REMARK    1  A    between atoms: C_3  and  C_2 
REMARK    2  A    between atoms: C_3  and  C_5 
REMARK    3  A    between atoms: C_3  and  N_4 
REMARK    4  A    between atoms: S_6  and  N_4 
REMARK    5  A    between atoms: N_4  and  C_7 
REMARK    6  A    between atoms: S_6  and  C_10 
REMARK    7  A    between atoms: C_7  and  C_18 
REMARK    8  A    between atoms: C_28  and  C_29 
REMARK    9  A    between atoms: C_33  and  S_35 
ROOT
ATOM      1  N   UNL d   1      54.637  17.342  -3.769  0.00  0.00    -0.192 NA
ENDROOT
BRANCH   1   2
ATOM      2  S   UNL d   1      55.251  18.962  -3.297  0.00  0.00     0.263 S 
ATOM      3  O   UNL d   1      55.501  18.868  -1.784  0.00  0.00    -0.204 OA
ATOM      4  O   UNL d   1      54.035  19.901  -3.328  0.00  0.00    -0.204 OA
BRANCH   2   5
ATOM      5  C   UNL d   1      56.658  19.673  -4.149  0.00  0.00     0.183 A 
ATOM      6  C   UNL d   1      57.957  19.664  -3.694  0.00  0.00     0.136 A 
ATOM      7  N   UNL d   1      58.707  20.301  -4.607  0.00  0.00    -0.353 N 
ATOM      8  C   UNL d   1      60.143  20.541  -4.554  0.00  0.00     0.156 C 
ATOM      9  C   UNL d   1      57.867  20.681  -5.589  0.00  0.00     0.210 A 
ATOM     10  N   UNL d   1      56.595  20.310  -5.335  0.00  0.00    -0.229 NA
ENDBRANCH   2   5
ENDBRANCH   1   2
BRANCH   1  11
ATOM     11  C   UNL d   1      54.011  16.655  -2.623  0.00  0.00     0.147 C 
BRANCH  11  12
ATOM     12  C   UNL d   1      52.541  16.376  -2.894  0.00  0.00    -0.038 A 
ATOM     13  C   UNL d   1      51.875  15.156  -2.608  0.00  0.00    -0.054 A 
ATOM     14  C   UNL d   1      52.534  13.943  -1.991  0.00  0.00     0.049 C 
ATOM     15  C   UNL d   1      50.505  15.032  -2.912  0.00  0.00     0.019 A 
ATOM     16  C   UNL d   1      49.759  16.081  -3.500  0.00  0.00    -0.025 A 
ATOM     17  C   UNL d   1      50.454  17.279  -3.774  0.00  0.00     0.013 A 
ATOM     18  C   UNL d   1      51.807  17.417  -3.478  0.00  0.00     0.010 A 
BRANCH  16  19
ATOM     19  C   UNL d   1      48.282  15.929  -3.827  0.00  0.00    -0.025 A 
ATOM     20  C   UNL d   1      47.758  14.715  -4.341  0.00  0.00     0.012 A 
ATOM     21  C   UNL d   1      46.400  14.577  -4.640  0.00  0.00     0.002 A 
ATOM     22  C   UNL d   1      45.523  15.636  -4.436  0.00  0.00     0.023 A 
ATOM     23  C   UNL d   1      45.998  16.844  -3.929  0.00  0.00     0.059 A 
ATOM     24  C   UNL d   1      47.360  16.991  -3.631  0.00  0.00     0.035 A 
BRANCH  23  25
ATOM     25  S   UNL d   1      44.862  18.212  -3.670  0.00  0.00     0.171 S 
ATOM     26  O   UNL d   1      45.252  19.325  -4.654  0.00  0.00    -0.223 OA
ATOM     27  C   UNL d   1      43.053  18.090  -3.666  0.00  0.00     0.167 C 
ATOM     28  O   UNL d   1      45.282  18.910  -2.367  0.00  0.00    -0.223 OA
ENDBRANCH  23  25
ENDBRANCH  16  19
ENDBRANCH  11  12
ENDBRANCH   1  11
BRANCH   1  29
ATOM     29  C   UNL d   1      55.634  16.561  -4.557  0.00  0.00     0.108 C 
BRANCH  29  30
ATOM     30  C   UNL d   1      55.602  16.900  -6.053  0.00  0.00    -0.026 A 
ATOM     31  C   UNL d   1      56.680  17.048  -6.963  0.00  0.00    -0.013 A 
ATOM     32  C   UNL d   1      58.161  16.936  -6.757  0.00  0.00     0.057 C 
ATOM     33  S   UNL d   1      56.059  17.450  -8.476  0.00  0.00    -0.100 SA
ATOM     34  C   UNL d   1      54.449  17.456  -8.023  0.00  0.00    -0.020 A 
ATOM     35  C   UNL d   1      53.297  17.753  -8.923  0.00  0.00     0.056 C 
ATOM     36  C   UNL d   1      54.360  17.145  -6.677  0.00  0.00     0.024 A 
ENDBRANCH  29  30
BRANCH  29  37
ATOM     37  C   UNL d   1      55.666  15.042  -4.239  0.00  0.00     0.021 C 
ATOM     38  C   UNL d   1      57.066  14.557  -3.856  0.00  0.00     0.007 C 
ENDBRANCH  29  37
ENDBRANCH   1  29
TORSDOF 9
ENDMDL
MODEL 3
REMARK VINA RESULT:    -7.677      2.455      4.839
REMARK INTER + INTRA:         -12.715
REMARK INTER:                 -10.369
REMARK INTRA:                  -2.346
REMARK UNBOUND:                -0.999
REMARK  9 active torsions:
REMARK  status: ('A' for Active; 'I' for Inactive)
REMARK    1  A    between atoms: C_3  and  C_2 
REMARK    2  A    between atoms: C_3  and  C_5 
REMARK    3  A    between atoms: C_3  and  N_4 
REMARK    4  A    between atoms: S_6  and  N_4 
REMARK    5  A    between atoms: N_4  and  C_7 
REMARK    6  A    between atoms: S_6  and  C_10 
REMARK    7  A    between atoms: C_7  and  C_18 
REMARK    8  A    between atoms: C_28  and  C_29 
REMARK    9  A    between atoms: C_33  and  S_35 
ROOT
ATOM      1  N   UNL d   1      55.349  16.489  -3.946  0.00  0.00    -0.192 NA
ENDROOT
BRANCH   1   2
ATOM      2  S   UNL d   1      56.148  16.292  -5.541  0.00  0.00     0.263 S 
ATOM      3  O   UNL d   1      56.136  14.779  -5.808  0.00  0.00    -0.204 OA
ATOM      4  O   UNL d   1      57.647  16.526  -5.295  0.00  0.00    -0.204 OA
BRANCH   2   5
ATOM      5  C   UNL d   1      55.558  17.212  -6.962  0.00  0.00     0.183 A 
ATOM      6  C   UNL d   1      55.911  18.504  -7.281  0.00  0.00     0.136 A 
ATOM      7  N   UNL d   1      55.253  18.834  -8.404  0.00  0.00    -0.353 N 
ATOM      8  C   UNL d   1      55.309  20.104  -9.116  0.00  0.00     0.156 C 
ATOM      9  C   UNL d   1      54.522  17.755  -8.746  0.00  0.00     0.210 A 
ATOM     10  N   UNL d   1      54.687  16.739  -7.875  0.00  0.00    -0.229 NA
ENDBRANCH   2   5
ENDBRANCH   1   2
BRANCH   1  11
ATOM     11  C   UNL d   1      54.579  17.747  -3.887  0.00  0.00     0.147 C 
BRANCH  11  12
ATOM     12  C   UNL d   1      53.086  17.469  -3.839  0.00  0.00    -0.038 A 
ATOM     13  C   UNL d   1      52.172  18.067  -2.932  0.00  0.00    -0.054 A 
ATOM     14  C   UNL d   1      52.553  19.073  -1.870  0.00  0.00     0.049 C 
ATOM     15  C   UNL d   1      50.809  17.718  -2.996  0.00  0.00     0.019 A 
ATOM     16  C   UNL d   1      50.308  16.782  -3.933  0.00  0.00    -0.025 A 
ATOM     17  C   UNL d   1      51.245  16.205  -4.818  0.00  0.00     0.013 A 
ATOM     18  C   UNL d   1      52.594  16.541  -4.767  0.00  0.00     0.010 A 
BRANCH  16  19
ATOM     19  C   UNL d   1      48.835  16.411  -3.987  0.00  0.00    -0.025 A 
ATOM     20  C   UNL d   1      48.415  15.074  -4.215  0.00  0.00     0.012 A 
ATOM     21  C   UNL d   1      47.061  14.735  -4.263  0.00  0.00     0.002 A 
ATOM     22  C   UNL d   1      46.084  15.708  -4.082  0.00  0.00     0.023 A 
ATOM     23  C   UNL d   1      46.456  17.031  -3.852  0.00  0.00     0.059 A 
ATOM     24  C   UNL d   1      47.813  17.380  -3.807  0.00  0.00     0.035 A 
BRANCH  23  25
ATOM     25  S   UNL d   1      45.191  18.286  -3.624  0.00  0.00     0.171 S 
ATOM     26  O   UNL d   1      45.483  19.420  -4.619  0.00  0.00    -0.223 OA
ATOM     27  C   UNL d   1      43.401  17.991  -3.636  0.00  0.00     0.167 C 
ATOM     28  O   UNL d   1      45.526  19.038  -2.326  0.00  0.00    -0.223 OA
ENDBRANCH  23  25
ENDBRANCH  16  19
ENDBRANCH  11  12
ENDBRANCH   1  11
BRANCH   1  29
ATOM     29  C   UNL d   1      56.270  16.213  -2.807  0.00  0.00     0.108 C 
BRANCH  29  30
ATOM     30  C   UNL d   1      55.950  14.893  -2.093  0.00  0.00    -0.026 A 
ATOM     31  C   UNL d   1      56.791  14.076  -1.295  0.00  0.00    -0.013 A 
ATOM     32  C   UNL d   1      58.234  14.230  -0.914  0.00  0.00     0.057 C 
ATOM     33  S   UNL d   1      55.915  12.731  -0.787  0.00  0.00    -0.100 SA
ATOM     34  C   UNL d   1      54.486  13.136  -1.555  0.00  0.00    -0.020 A 
ATOM     35  C   UNL d   1      53.228  12.335  -1.523  0.00  0.00     0.056 C 
ATOM     36  C   UNL d   1      54.661  14.333  -2.228  0.00  0.00     0.024 A 
ENDBRANCH  29  30
BRANCH  29  37
ATOM     37  C   UNL d   1      56.512  17.418  -1.859  0.00  0.00     0.021 C 
ATOM     38  C   UNL d   1      55.628  17.365  -0.611  0.00  0.00     0.007 C 
ENDBRANCH  29  37
ENDBRANCH   1  29
TORSDOF 9
ENDMDL
MODEL 4
REMARK VINA RESULT:    -7.540      2.284      5.041
REMARK INTER + INTRA:         -12.506
REMARK INTER:                 -10.664
REMARK INTRA:                  -1.842
REMARK UNBOUND:                -0.999
REMARK  9 active torsions:
REMARK  status: ('A' for Active; 'I' for Inactive)
REMARK    1  A    between atoms: C_3  and  C_2 
REMARK    2  A    between atoms: C_3  and  C_5 
REMARK    3  A    between atoms: C_3  and  N_4 
REMARK    4  A    between atoms: S_6  and  N_4 
REMARK    5  A    between atoms: N_4  and  C_7 
REMARK    6  A    between atoms: S_6  and  C_10 
REMARK    7  A    between atoms: C_7  and  C_18 
REMARK    8  A    between atoms: C_28  and  C_29 
REMARK    9  A    between atoms: C_33  and  S_35 
ROOT
ATOM      1  N   UNL d   1      55.137  17.676  -2.832  0.00  0.00    -0.192 NA
ENDROOT
BRANCH   1   2
ATOM      2  S   UNL d   1      56.139  16.627  -1.775  0.00  0.00     0.263 S 
ATOM      3  O   UNL d   1      55.595  16.854  -0.357  0.00  0.00    -0.204 OA
ATOM      4  O   UNL d   1      57.508  17.317  -1.670  0.00  0.00    -0.204 OA
BRANCH   2   5
ATOM      5  C   UNL d   1      56.305  14.880  -2.141  0.00  0.00     0.183 A 
ATOM      6  C   UNL d   1      55.287  13.955  -2.103  0.00  0.00     0.136 A 
ATOM      7  N   UNL d   1      55.814  12.763  -2.428  0.00  0.00    -0.353 N 
ATOM      8  C   UNL d   1      55.118  11.487  -2.516  0.00  0.00     0.156 C 
ATOM      9  C   UNL d   1      57.124  12.978  -2.654  0.00  0.00     0.210 A 
ATOM     10  N   UNL d   1      57.459  14.274  -2.483  0.00  0.00    -0.229 NA
ENDBRANCH   2   5
ENDBRANCH   1   2
BRANCH   1  11
ATOM     11  C   UNL d   1      54.808  16.997  -4.100  0.00  0.00     0.147 C 
BRANCH  11  12
ATOM     12  C   UNL d   1      53.312  16.759  -4.217  0.00  0.00    -0.038 A 
ATOM     13  C   UNL d   1      52.590  16.678  -5.437  0.00  0.00    -0.054 A 
ATOM     14  C   UNL d   1      53.207  16.821  -6.809  0.00  0.00     0.049 C 
ATOM     15  C   UNL d   1      51.200  16.452  -5.401  0.00  0.00     0.019 A 
ATOM     16  C   UNL d   1      50.485  16.307  -4.188  0.00  0.00    -0.025 A 
ATOM     17  C   UNL d   1      51.233  16.397  -2.994  0.00  0.00     0.013 A 
ATOM     18  C   UNL d   1      52.607  16.617  -3.013  0.00  0.00     0.010 A 
BRANCH  16  19
ATOM     19  C   UNL d   1      48.983  16.070  -4.165  0.00  0.00    -0.025 A 
ATOM     20  C   UNL d   1      48.434  14.778  -4.375  0.00  0.00     0.012 A 
ATOM     21  C   UNL d   1      47.054  14.562  -4.353  0.00  0.00     0.002 A 
ATOM     22  C   UNL d   1      46.179  15.617  -4.120  0.00  0.00     0.023 A 
ATOM     23  C   UNL d   1      46.679  16.900  -3.906  0.00  0.00     0.059 A 
ATOM     24  C   UNL d   1      48.063  17.125  -3.931  0.00  0.00     0.035 A 
BRANCH  23  25
ATOM     25  S   UNL d   1      45.546  18.262  -3.610  0.00  0.00     0.171 S 
ATOM     26  O   UNL d   1      45.960  19.415  -4.536  0.00  0.00    -0.223 OA
ATOM     27  C   UNL d   1      43.736  18.150  -3.644  0.00  0.00     0.167 C 
ATOM     28  O   UNL d   1      45.944  18.900  -2.269  0.00  0.00    -0.223 OA
ENDBRANCH  23  25
ENDBRANCH  16  19
ENDBRANCH  11  12
ENDBRANCH   1  11
BRANCH   1  29
ATOM     29  C   UNL d   1      55.673  19.064  -2.933  0.00  0.00     0.108 C 
BRANCH  29  30
ATOM     30  C   UNL d   1      54.715  20.113  -2.353  0.00  0.00    -0.026 A 
ATOM     31  C   UNL d   1      54.424  21.420  -2.820  0.00  0.00    -0.013 A 
ATOM     32  C   UNL d   1      54.956  22.183  -3.997  0.00  0.00     0.057 C 
ATOM     33  S   UNL d   1      53.314  22.133  -1.774  0.00  0.00    -0.100 SA
ATOM     34  C   UNL d   1      53.186  20.839  -0.723  0.00  0.00    -0.020 A 
ATOM     35  C   UNL d   1      52.326  20.794   0.495  0.00  0.00     0.056 C 
ATOM     36  C   UNL d   1      54.010  19.818  -1.165  0.00  0.00     0.024 A 
ENDBRANCH  29  30
BRANCH  29  37
ATOM     37  C   UNL d   1      56.270  19.431  -4.318  0.00  0.00     0.021 C 
ATOM     38  C   UNL d   1      57.749  19.814  -4.232  0.00  0.00     0.007 C 
ENDBRANCH  29  37
ENDBRANCH   1  29
TORSDOF 9
ENDMDL
MODEL 5
REMARK VINA RESULT:    -7.344      2.275      3.260
REMARK INTER + INTRA:         -12.207
REMARK INTER:                 -10.364
REMARK INTRA:                  -1.843
REMARK UNBOUND:                -0.999
REMARK  9 active torsions:
REMARK  status: ('A' for Active; 'I' for Inactive)
REMARK    1  A    between atoms: C_3  and  C_2 
REMARK    2  A    between atoms: C_3  and  C_5 
REMARK    3  A    between atoms: C_3  and  N_4 
REMARK    4  A    between atoms: S_6  and  N_4 
REMARK    5  A    between atoms: N_4  and  C_7 
REMARK    6  A    between atoms: S_6  and  C_10 
REMARK    7  A    between atoms: C_7  and  C_18 
REMARK    8  A    between atoms: C_28  and  C_29 
REMARK    9  A    between atoms: C_33  and  S_35 
ROOT
ATOM      1  N   UNL d   1      54.868  18.696  -4.133  0.00  0.00    -0.192 NA
ENDROOT
BRANCH   1   2
ATOM      2  S   UNL d   1      55.419  20.371  -3.794  0.00  0.00     0.263 S 
ATOM      3  O   UNL d   1      55.025  20.631  -2.332  0.00  0.00    -0.204 OA
ATOM      4  O   UNL d   1      54.434  21.297  -4.525  0.00  0.00    -0.204 OA
BRANCH   2   5
ATOM      5  C   UNL d   1      57.121  20.837  -4.106  0.00  0.00     0.183 A 
ATOM      6  C   UNL d   1      58.225  20.055  -3.848  0.00  0.00     0.136 A 
ATOM      7  N   UNL d   1      59.309  20.760  -4.208  0.00  0.00    -0.353 N 
ATOM      8  C   UNL d   1      60.702  20.342  -4.115  0.00  0.00     0.156 C 
ATOM      9  C   UNL d   1      58.857  21.940  -4.673  0.00  0.00     0.210 A 
ATOM     10  N   UNL d   1      57.511  22.019  -4.621  0.00  0.00    -0.229 NA
ENDBRANCH   2   5
ENDBRANCH   1   2
BRANCH   1  11
ATOM     11  C   UNL d   1      54.324  18.057  -2.919  0.00  0.00     0.147 C 
BRANCH  11  12
ATOM     12  C   UNL d   1      52.846  17.745  -3.085  0.00  0.00    -0.038 A 
ATOM     13  C   UNL d   1      51.783  18.505  -2.531  0.00  0.00    -0.054 A 
ATOM     14  C   UNL d   1      51.966  19.746  -1.686  0.00  0.00     0.049 C 
ATOM     15  C   UNL d   1      50.454  18.102  -2.762  0.00  0.00     0.019 A 
ATOM     16  C   UNL d   1      50.130  16.955  -3.527  0.00  0.00    -0.025 A 
ATOM     17  C   UNL d   1      51.212  16.221  -4.060  0.00  0.00     0.013 A 
ATOM     18  C   UNL d   1      52.530  16.608  -3.841  0.00  0.00     0.010 A 
BRANCH  16  19
ATOM     19  C   UNL d   1      48.690  16.529  -3.764  0.00  0.00    -0.025 A 
ATOM     20  C   UNL d   1      48.363  15.202  -4.147  0.00  0.00     0.012 A 
ATOM     21  C   UNL d   1      47.039  14.812  -4.363  0.00  0.00     0.002 A 
ATOM     22  C   UNL d   1      46.001  15.723  -4.202  0.00  0.00     0.023 A 
ATOM     23  C   UNL d   1      46.281  17.034  -3.822  0.00  0.00     0.059 A 
ATOM     24  C   UNL d   1      47.607  17.434  -3.608  0.00  0.00     0.035 A 
BRANCH  23  25
ATOM     25  S   UNL d   1      44.937  18.210  -3.619  0.00  0.00     0.171 S 
ATOM     26  O   UNL d   1      45.181  19.361  -4.608  0.00  0.00    -0.223 OA
ATOM     27  C   UNL d   1      43.170  17.806  -3.668  0.00  0.00     0.167 C 
ATOM     28  O   UNL d   1      45.200  18.979  -2.314  0.00  0.00    -0.223 OA
ENDBRANCH  23  25
ENDBRANCH  16  19
ENDBRANCH  11  12
ENDBRANCH   1  11
BRANCH   1  29
ATOM     29  C   UNL d   1      55.868  17.912  -4.913  0.00  0.00     0.108 C 
BRANCH  29  30
ATOM     30  C   UNL d   1      55.782  18.177  -6.422  0.00  0.00    -0.026 A 
ATOM     31  C   UNL d   1      54.827  17.714  -7.362  0.00  0.00    -0.013 A 
ATOM     32  C   UNL d   1      53.629  16.827  -7.189  0.00  0.00     0.057 C 
ATOM     33  S   UNL d   1      55.240  18.298  -8.886  0.00  0.00    -0.100 SA
ATOM     34  C   UNL d   1      56.613  19.123  -8.406  0.00  0.00    -0.020 A 
ATOM     35  C   UNL d   1      57.513  19.904  -9.303  0.00  0.00     0.056 C 
ATOM     36  C   UNL d   1      56.781  18.960  -7.041  0.00  0.00     0.024 A 
ENDBRANCH  29  30
BRANCH  29  37
ATOM     37  C   UNL d   1      55.965  16.412  -4.525  0.00  0.00     0.021 C 
ATOM     38  C   UNL d   1      57.411  15.952  -4.332  0.00  0.00     0.007 C 
ENDBRANCH  29  37
ENDBRANCH   1  29
TORSDOF 9
ENDMDL
MODEL 6
REMARK VINA RESULT:    -7.096      2.287      4.458
REMARK INTER + INTRA:         -11.828
REMARK INTER:                  -9.607
REMARK INTRA:                  -2.221
REMARK UNBOUND:                -0.999
REMARK  9 active torsions:
REMARK  status: ('A' for Active; 'I' for Inactive)
REMARK    1  A    between atoms: C_3  and  C_2 
REMARK    2  A    between atoms: C_3  and  C_5 
REMARK    3  A    between atoms: C_3  and  N_4 
REMARK    4  A    between atoms: S_6  and  N_4 
REMARK    5  A    between atoms: N_4  and  C_7 
REMARK    6  A    between atoms: S_6  and  C_10 
REMARK    7  A    between atoms: C_7  and  C_18 
REMARK    8  A    between atoms: C_28  and  C_29 
REMARK    9  A    between atoms: C_33  and  S_35 
ROOT
ATOM      1  N   UNL d   1      55.293  17.725  -3.604  0.00  0.00    -0.192 NA
ENDROOT
BRANCH   1   2
ATOM      2  S   UNL d   1      55.772  18.746  -5.001  0.00  0.00     0.263 S 
ATOM      3  O   UNL d   1      55.086  20.099  -4.759  0.00  0.00    -0.204 OA
ATOM      4  O   UNL d   1      54.963  18.227  -6.201  0.00  0.00    -0.204 OA
BRANCH   2   5
ATOM      5  C   UNL d   1      57.504  18.953  -5.410  0.00  0.00     0.183 A 
ATOM      6  C   UNL d   1      58.285  18.035  -6.074  0.00  0.00     0.136 A 
ATOM      7  N   UNL d   1      59.518  18.555  -6.177  0.00  0.00    -0.353 N 
ATOM      8  C   UNL d   1      60.684  17.942  -6.800  0.00  0.00     0.156 C 
ATOM      9  C   UNL d   1      59.470  19.763  -5.583  0.00  0.00     0.210 A 
ATOM     10  N   UNL d   1      58.242  20.037  -5.098  0.00  0.00    -0.229 NA
ENDBRANCH   2   5
ENDBRANCH   1   2
BRANCH   1  11
ATOM     11  C   UNL d   1      54.419  18.468  -2.675  0.00  0.00     0.147 C 
BRANCH  11  12
ATOM     12  C   UNL d   1      52.963  18.081  -2.873  0.00  0.00    -0.038 A 
ATOM     13  C   UNL d   1      51.853  18.762  -2.307  0.00  0.00    -0.054 A 
ATOM     14  C   UNL d   1      51.956  19.978  -1.416  0.00  0.00     0.049 C 
ATOM     15  C   UNL d   1      50.551  18.294  -2.572  0.00  0.00     0.019 A 
ATOM     16  C   UNL d   1      50.300  17.161  -3.383  0.00  0.00    -0.025 A 
ATOM     17  C   UNL d   1      51.427  16.507  -3.926  0.00  0.00     0.013 A 
ATOM     18  C   UNL d   1      52.719  16.957  -3.675  0.00  0.00     0.010 A 
BRANCH  16  19
ATOM     19  C   UNL d   1      48.889  16.666  -3.655  0.00  0.00    -0.025 A 
ATOM     20  C   UNL d   1      48.634  15.318  -4.020  0.00  0.00     0.012 A 
ATOM     21  C   UNL d   1      47.336  14.865  -4.268  0.00  0.00     0.002 A 
ATOM     22  C   UNL d   1      46.254  15.731  -4.160  0.00  0.00     0.023 A 
ATOM     23  C   UNL d   1      46.463  17.061  -3.800  0.00  0.00     0.059 A 
ATOM     24  C   UNL d   1      47.763  17.524  -3.553  0.00  0.00     0.035 A 
BRANCH  23  25
ATOM     25  S   UNL d   1      45.063  18.179  -3.665  0.00  0.00     0.171 S 
ATOM     26  O   UNL d   1      45.301  19.335  -4.649  0.00  0.00    -0.223 OA
ATOM     27  C   UNL d   1      43.318  17.699  -3.791  0.00  0.00     0.167 C 
ATOM     28  O   UNL d   1      45.233  18.963  -2.354  0.00  0.00    -0.223 OA
ENDBRANCH  23  25
ENDBRANCH  16  19
ENDBRANCH  11  12
ENDBRANCH   1  11
BRANCH   1  29
ATOM     29  C   UNL d   1      56.450  17.001  -3.002  0.00  0.00     0.108 C 
BRANCH  29  30
ATOM     30  C   UNL d   1      56.230  15.485  -2.936  0.00  0.00    -0.026 A 
ATOM     31  C   UNL d   1      56.781  14.461  -3.748  0.00  0.00    -0.013 A 
ATOM     32  C   UNL d   1      57.723  14.532  -4.913  0.00  0.00     0.057 C 
ATOM     33  S   UNL d   1      56.169  12.977  -3.237  0.00  0.00    -0.100 SA
ATOM     34  C   UNL d   1      55.206  13.583  -2.012  0.00  0.00    -0.020 A 
ATOM     35  C   UNL d   1      54.339  12.770  -1.109  0.00  0.00     0.056 C 
ATOM     36  C   UNL d   1      55.340  14.960  -1.973  0.00  0.00     0.024 A 
ENDBRANCH  29  30
BRANCH  29  37
ATOM     37  C   UNL d   1      57.003  17.632  -1.696  0.00  0.00     0.021 C 
ATOM     38  C   UNL d   1      58.444  18.123  -1.851  0.00  0.00     0.007 C 
ENDBRANCH  29  37
ENDBRANCH   1  29
TORSDOF 9
ENDMDL
MODEL 7
REMARK VINA RESULT:    -6.959      2.433      3.309
REMARK INTER + INTRA:         -11.618
REMARK INTER:                 -11.210
REMARK INTRA:                  -0.409
REMARK UNBOUND:                -0.999
REMARK  9 active torsions:
REMARK  status: ('A' for Active; 'I' for Inactive)
REMARK    1  A    between atoms: C_3  and  C_2 
REMARK    2  A    between atoms: C_3  and  C_5 
REMARK    3  A    between atoms: C_3  and  N_4 
REMARK    4  A    between atoms: S_6  and  N_4 
REMARK    5  A    between atoms: N_4  and  C_7 
REMARK    6  A    between atoms: S_6  and  C_10 
REMARK    7  A    between atoms: C_7  and  C_18 
REMARK    8  A    between atoms: C_28  and  C_29 
REMARK    9  A    between atoms: C_33  and  S_35 
ROOT
ATOM      1  N   UNL d   1      53.585  17.282  -4.123  0.00  0.00    -0.192 NA
ENDROOT
BRANCH   1   2
ATOM      2  S   UNL d   1      53.639  18.522  -2.827  0.00  0.00     0.263 S 
ATOM      3  O   UNL d   1      52.169  18.884  -2.562  0.00  0.00    -0.204 OA
ATOM      4  O   UNL d   1      54.135  19.813  -3.497  0.00  0.00    -0.204 OA
BRANCH   2   5
ATOM      5  C   UNL d   1      54.516  18.189  -1.300  0.00  0.00     0.183 A 
ATOM      6  C   UNL d   1      55.438  17.185  -1.110  0.00  0.00     0.136 A 
ATOM      7  N   UNL d   1      55.857  17.260   0.163  0.00  0.00    -0.353 N 
ATOM      8  C   UNL d   1      56.831  16.399   0.821  0.00  0.00     0.156 C 
ATOM      9  C   UNL d   1      55.195  18.292   0.720  0.00  0.00     0.210 A 
ATOM     10  N   UNL d   1      54.358  18.884  -0.157  0.00  0.00    -0.229 NA
ENDBRANCH   2   5
ENDBRANCH   1   2
BRANCH   1  11
ATOM     11  C   UNL d   1      52.777  16.117  -3.715  0.00  0.00     0.147 C 
BRANCH  11  12
ATOM     12  C   UNL d   1      51.292  16.431  -3.794  0.00  0.00    -0.038 A 
ATOM     13  C   UNL d   1      50.599  16.813  -4.972  0.00  0.00    -0.054 A 
ATOM     14  C   UNL d   1      51.241  16.967  -6.332  0.00  0.00     0.049 C 
ATOM     15  C   UNL d   1      49.217  17.077  -4.904  0.00  0.00     0.019 A 
ATOM     16  C   UNL d   1      48.484  16.982  -3.697  0.00  0.00    -0.025 A 
ATOM     17  C   UNL d   1      49.206  16.604  -2.544  0.00  0.00     0.013 A 
ATOM     18  C   UNL d   1      50.571  16.338  -2.595  0.00  0.00     0.010 A 
BRANCH  16  19
ATOM     19  C   UNL d   1      46.994  17.276  -3.638  0.00  0.00    -0.025 A 
ATOM     20  C   UNL d   1      46.494  18.450  -3.017  0.00  0.00     0.012 A 
ATOM     21  C   UNL d   1      45.124  18.719  -2.966  0.00  0.00     0.002 A 
ATOM     22  C   UNL d   1      44.211  17.835  -3.529  0.00  0.00     0.023 A 
ATOM     23  C   UNL d   1      44.662  16.673  -4.151  0.00  0.00     0.059 A 
ATOM     24  C   UNL d   1      46.035  16.394  -4.203  0.00  0.00     0.035 A 
BRANCH  23  25
ATOM     25  S   UNL d   1      43.479  15.530  -4.874  0.00  0.00     0.171 S 
ATOM     26  O   UNL d   1      43.078  14.529  -3.779  0.00  0.00    -0.223 OA
ATOM     27  C   UNL d   1      41.973  16.002  -5.767  0.00  0.00     0.167 C 
ATOM     28  O   UNL d   1      44.269  14.569  -5.776  0.00  0.00    -0.223 OA
ENDBRANCH  23  25
ENDBRANCH  16  19
ENDBRANCH  11  12
ENDBRANCH   1  11
BRANCH   1  29
ATOM     29  C   UNL d   1      54.933  16.995  -4.696  0.00  0.00     0.108 C 
BRANCH  29  30
ATOM     30  C   UNL d   1      55.337  17.995  -5.788  0.00  0.00    -0.026 A 
ATOM     31  C   UNL d   1      54.984  18.016  -7.161  0.00  0.00    -0.013 A 
ATOM     32  C   UNL d   1      54.133  17.082  -7.970  0.00  0.00     0.057 C 
ATOM     33  S   UNL d   1      55.737  19.332  -7.893  0.00  0.00    -0.100 SA
ATOM     34  C   UNL d   1      56.518  19.888  -6.523  0.00  0.00    -0.020 A 
ATOM     35  C   UNL d   1      57.408  21.084  -6.458  0.00  0.00     0.056 C 
ATOM     36  C   UNL d   1      56.209  19.056  -5.460  0.00  0.00     0.024 A 
ENDBRANCH  29  30
BRANCH  29  37
ATOM     37  C   UNL d   1      55.182  15.506  -5.058  0.00  0.00     0.021 C 
ATOM     38  C   UNL d   1      56.655  15.217  -5.352  0.00  0.00     0.007 C 
ENDBRANCH  29  37
ENDBRANCH   1  29
TORSDOF 9
ENDMDL
MODEL 8
REMARK VINA RESULT:    -6.686      2.073      3.712
REMARK INTER + INTRA:         -11.203
REMARK INTER:                 -10.204
REMARK INTRA:                  -0.999
REMARK UNBOUND:                -0.999
REMARK  9 active torsions:
REMARK  status: ('A' for Active; 'I' for Inactive)
REMARK    1  A    between atoms: C_3  and  C_2 
REMARK    2  A    between atoms: C_3  and  C_5 
REMARK    3  A    between atoms: C_3  and  N_4 
REMARK    4  A    between atoms: S_6  and  N_4 
REMARK    5  A    between atoms: N_4  and  C_7 
REMARK    6  A    between atoms: S_6  and  C_10 
REMARK    7  A    between atoms: C_7  and  C_18 
REMARK    8  A    between atoms: C_28  and  C_29 
REMARK    9  A    between atoms: C_33  and  S_35 
ROOT
ATOM      1  N   UNL d   1      54.841  17.998  -5.640  0.00  0.00    -0.192 NA
ENDROOT
BRANCH   1   2
ATOM      2  S   UNL d   1      56.016  19.339  -5.435  0.00  0.00     0.263 S 
ATOM      3  O   UNL d   1      55.238  20.441  -4.699  0.00  0.00    -0.204 OA
ATOM      4  O   UNL d   1      56.173  19.980  -6.823  0.00  0.00    -0.204 OA
BRANCH   2   5
ATOM      5  C   UNL d   1      57.604  19.033  -4.663  0.00  0.00     0.183 A 
ATOM      6  C   UNL d   1      57.804  18.335  -3.494  0.00  0.00     0.136 A 
ATOM      7  N   UNL d   1      59.124  18.335  -3.247  0.00  0.00    -0.353 N 
ATOM      8  C   UNL d   1      59.808  17.721  -2.116  0.00  0.00     0.156 C 
ATOM      9  C   UNL d   1      59.698  19.022  -4.253  0.00  0.00     0.210 A 
ATOM     10  N   UNL d   1      58.787  19.467  -5.143  0.00  0.00    -0.229 NA
ENDBRANCH   2   5
ENDBRANCH   1   2
BRANCH   1  11
ATOM     11  C   UNL d   1      54.518  17.369  -4.345  0.00  0.00     0.147 C 
BRANCH  11  12
ATOM     12  C   UNL d   1      53.021  17.147  -4.206  0.00  0.00    -0.038 A 
ATOM     13  C   UNL d   1      52.199  17.726  -3.204  0.00  0.00    -0.054 A 
ATOM     14  C   UNL d   1      52.695  18.652  -2.117  0.00  0.00     0.049 C 
ATOM     15  C   UNL d   1      50.821  17.434  -3.191  0.00  0.00     0.019 A 
ATOM     16  C   UNL d   1      50.217  16.576  -4.141  0.00  0.00    -0.025 A 
ATOM     17  C   UNL d   1      51.065  16.016  -5.121  0.00  0.00     0.013 A 
ATOM     18  C   UNL d   1      52.427  16.295  -5.148  0.00  0.00     0.010 A 
BRANCH  16  19
ATOM     19  C   UNL d   1      48.728  16.267  -4.110  0.00  0.00    -0.025 A 
ATOM     20  C   UNL d   1      48.242  14.946  -4.291  0.00  0.00     0.012 A 
ATOM     21  C   UNL d   1      46.874  14.663  -4.261  0.00  0.00     0.002 A 
ATOM     22  C   UNL d   1      45.950  15.679  -4.048  0.00  0.00     0.023 A 
ATOM     23  C   UNL d   1      46.387  16.989  -3.862  0.00  0.00     0.059 A 
ATOM     24  C   UNL d   1      47.758  17.281  -3.895  0.00  0.00     0.035 A 
BRANCH  23  25
ATOM     25  S   UNL d   1      45.189  18.300  -3.591  0.00  0.00     0.171 S 
ATOM     26  O   UNL d   1      45.555  19.459  -4.531  0.00  0.00    -0.223 OA
ATOM     27  C   UNL d   1      43.387  18.103  -3.634  0.00  0.00     0.167 C 
ATOM     28  O   UNL d   1      45.549  18.975  -2.257  0.00  0.00    -0.223 OA
ENDBRANCH  23  25
ENDBRANCH  16  19
ENDBRANCH  11  12
ENDBRANCH   1  11
BRANCH   1  29
ATOM     29  C   UNL d   1      55.209  17.081  -6.758  0.00  0.00     0.108 C 
BRANCH  29  30
ATOM     30  C   UNL d   1      56.588  16.436  -6.565  0.00  0.00    -0.026 A 
ATOM     31  C   UNL d   1      57.805  16.697  -7.245  0.00  0.00    -0.013 A 
ATOM     32  C   UNL d   1      58.123  17.654  -8.355  0.00  0.00     0.057 C 
ATOM     33  S   UNL d   1      58.994  15.672  -6.637  0.00  0.00    -0.100 SA
ATOM     34  C   UNL d   1      58.019  14.885  -5.531  0.00  0.00    -0.020 A 
ATOM     35  C   UNL d   1      58.456  13.797  -4.609  0.00  0.00     0.056 C 
ATOM     36  C   UNL d   1      56.738  15.405  -5.612  0.00  0.00     0.024 A 
ENDBRANCH  29  30
BRANCH  29  37
ATOM     37  C   UNL d   1      54.957  17.655  -8.178  0.00  0.00     0.021 C 
ATOM     38  C   UNL d   1      53.467  17.774  -8.502  0.00  0.00     0.007 C 
ENDBRANCH  29  37
ENDBRANCH   1  29
TORSDOF 9
ENDMDL
MODEL 9
REMARK VINA RESULT:    -6.581      2.581      5.107
REMARK INTER + INTRA:         -11.042
REMARK INTER:                  -8.955
REMARK INTRA:                  -2.087
REMARK UNBOUND:                -0.999
REMARK  9 active torsions:
REMARK  status: ('A' for Active; 'I' for Inactive)
REMARK    1  A    between atoms: C_3  and  C_2 
REMARK    2  A    between atoms: C_3  and  C_5 
REMARK    3  A    between atoms: C_3  and  N_4 
REMARK    4  A    between atoms: S_6  and  N_4 
REMARK    5  A    between atoms: N_4  and  C_7 
REMARK    6  A    between atoms: S_6  and  C_10 
REMARK    7  A    between atoms: C_7  and  C_18 
REMARK    8  A    between atoms: C_28  and  C_29 
REMARK    9  A    between atoms: C_33  and  S_35 
ROOT
ATOM      1  N   UNL d   1      56.924  17.167  -5.296  0.00  0.00    -0.192 NA
ENDROOT
BRANCH   1   2
ATOM      2  S   UNL d   1      57.163  17.678  -7.001  0.00  0.00     0.263 S 
ATOM      3  O   UNL d   1      57.914  16.513  -7.664  0.00  0.00    -0.204 OA
ATOM      4  O   UNL d   1      58.265  18.748  -6.971  0.00  0.00    -0.204 OA
BRANCH   2   5
ATOM      5  C   UNL d   1      55.761  18.199  -7.988  0.00  0.00     0.183 A 
ATOM      6  C   UNL d   1      55.283  19.487  -8.082  0.00  0.00     0.136 A 
ATOM      7  N   UNL d   1      54.223  19.462  -8.905  0.00  0.00    -0.353 N 
ATOM      8  C   UNL d   1      53.391  20.591  -9.303  0.00  0.00     0.156 C 
ATOM      9  C   UNL d   1      54.073  18.181  -9.293  0.00  0.00     0.210 A 
ATOM     10  N   UNL d   1      55.005  17.376  -8.742  0.00  0.00    -0.229 NA
ENDBRANCH   2   5
ENDBRANCH   1   2
BRANCH   1  11
ATOM     11  C   UNL d   1      56.290  18.237  -4.503  0.00  0.00     0.147 C 
BRANCH  11  12
ATOM     12  C   UNL d   1      54.891  17.834  -4.066  0.00  0.00    -0.038 A 
ATOM     13  C   UNL d   1      54.174  18.411  -2.986  0.00  0.00    -0.054 A 
ATOM     14  C   UNL d   1      54.700  19.519  -2.102  0.00  0.00     0.049 C 
ATOM     15  C   UNL d   1      52.880  17.940  -2.688  0.00  0.00     0.019 A 
ATOM     16  C   UNL d   1      52.262  16.901  -3.424  0.00  0.00    -0.025 A 
ATOM     17  C   UNL d   1      53.005  16.348  -4.489  0.00  0.00     0.013 A 
ATOM     18  C   UNL d   1      54.283  16.804  -4.797  0.00  0.00     0.010 A 
BRANCH  16  19
ATOM     19  C   UNL d   1      50.866  16.400  -3.086  0.00  0.00    -0.025 A 
ATOM     20  C   UNL d   1      50.659  15.119  -2.510  0.00  0.00     0.012 A 
ATOM     21  C   UNL d   1      49.376  14.661  -2.200  0.00  0.00     0.002 A 
ATOM     22  C   UNL d   1      48.264  15.457  -2.447  0.00  0.00     0.023 A 
ATOM     23  C   UNL d   1      48.427  16.722  -3.008  0.00  0.00     0.059 A 
ATOM     24  C   UNL d   1      49.710  17.188  -3.327  0.00  0.00     0.035 A 
BRANCH  23  25
ATOM     25  S   UNL d   1      46.987  17.747  -3.331  0.00  0.00     0.171 S 
ATOM     26  O   UNL d   1      47.347  18.695  -4.486  0.00  0.00    -0.223 OA
ATOM     27  C   UNL d   1      45.305  17.136  -3.624  0.00  0.00     0.167 C 
ATOM     28  O   UNL d   1      46.910  18.790  -2.204  0.00  0.00    -0.223 OA
ENDBRANCH  23  25
ENDBRANCH  16  19
ENDBRANCH  11  12
ENDBRANCH   1  11
BRANCH   1  29
ATOM     29  C   UNL d   1      58.142  16.532  -4.714  0.00  0.00     0.108 C 
BRANCH  29  30
ATOM     30  C   UNL d   1      57.808  15.458  -3.671  0.00  0.00    -0.026 A 
ATOM     31  C   UNL d   1      57.575  15.600  -2.279  0.00  0.00    -0.013 A 
ATOM     32  C   UNL d   1      57.593  16.815  -1.399  0.00  0.00     0.057 C 
ATOM     33  S   UNL d   1      57.278  14.078  -1.623  0.00  0.00    -0.100 SA
ATOM     34  C   UNL d   1      57.443  13.222  -3.049  0.00  0.00    -0.020 A 
ATOM     35  C   UNL d   1      57.302  11.744  -3.195  0.00  0.00     0.056 C 
ATOM     36  C   UNL d   1      57.736  14.107  -4.073  0.00  0.00     0.024 A 
ENDBRANCH  29  30
BRANCH  29  37
ATOM     37  C   UNL d   1      59.252  17.529  -4.284  0.00  0.00     0.021 C 
ATOM     38  C   UNL d   1      60.657  16.978  -4.532  0.00  0.00     0.007 C 
ENDBRANCH  29  37
ENDBRANCH   1  29
TORSDOF 9
ENDMDL
