/content/4EXS_VS/DOCKING/CLC-0000183/CLC-0000183_output.pdbqt
 OpenBabel03062504413D

 38 41  0  0  1  0  0  0  0  0999 V2000
   54.6100   17.5310   -3.8470 N   0  0  0  0  0  0  0  0  0  0  0  0
   55.1410   19.1960   -3.4360 S   0  0  0  0  0  0  0  0  0  0  0  0
   55.2940   19.9100   -4.7880 O   0  0  0  0  0  0  0  0  0  0  0  0
   56.6110   19.0780   -3.0070 O   0  0  0  0  0  0  0  0  0  0  0  0
   54.1900   20.1820   -2.2800 C   0  0  0  0  0  0  0  0  0  0  0  0
   53.7690   19.7710   -1.0360 C   0  0  0  0  0  3  0  0  0  0  0  0
   53.0820   20.7870   -0.4880 N   0  0  0  0  0  0  0  0  0  0  0  0
   52.4430   20.8130    0.8210 C   0  0  0  0  0  1  0  0  0  0  0  0
   53.0960   21.7840   -1.3930 C   0  0  0  0  0  3  0  0  0  0  0  0
   53.7700   21.4420   -2.5100 N   0  0  0  0  0  0  0  0  0  0  0  0
   54.0050   16.8610   -2.6800 C   0  0  0  0  0  2  0  0  0  0  0  0
   52.5390   16.5470   -2.9330 C   0  0  0  0  0  0  0  0  0  0  0  0
   51.9150   15.2990   -2.6760 C   0  0  0  0  0  0  0  0  0  0  0  0
   52.6200   14.0870   -2.1100 C   0  0  0  0  0  1  0  0  0  0  0  0
   50.5430   15.1440   -2.9590 C   0  0  0  0  0  3  0  0  0  0  0  0
   49.7560   16.1880   -3.5000 C   0  0  0  0  0  0  0  0  0  0  0  0
   50.4110   17.4150   -3.7460 C   0  0  0  0  0  3  0  0  0  0  0  0
   51.7640   17.5840   -3.4710 C   0  0  0  0  0  3  0  0  0  0  0  0
   48.2780   16.0030   -3.8050 C   0  0  0  0  0  0  0  0  0  0  0  0
   47.7700   14.7690   -4.2880 C   0  0  0  0  0  3  0  0  0  0  0  0
   46.4120   14.6000   -4.5670 C   0  0  0  0  0  3  0  0  0  0  0  0
   45.5180   15.6470   -4.3730 C   0  0  0  0  0  3  0  0  0  0  0  0
   45.9770   16.8730   -3.8970 C   0  0  0  0  0  0  0  0  0  0  0  0
   47.3390   17.0520   -3.6180 C   0  0  0  0  0  3  0  0  0  0  0  0
   44.8190   18.2250   -3.6510 S   0  0  0  0  0  0  0  0  0  0  0  0
   45.1990   19.3400   -4.6370 O   0  0  0  0  0  0  0  0  0  0  0  0
   43.0110   18.0760   -3.6580 C   0  0  0  0  0  1  0  0  0  0  0  0
   45.2190   18.9350   -2.3480 O   0  0  0  0  0  0  0  0  0  0  0  0
   55.6520   16.7670   -4.5930 C   0  0  2  0  0  3  0  0  0  0  0  0
   55.5810   16.9940   -6.1080 C   0  0  0  0  0  0  0  0  0  0  0  0
   56.6320   17.0460   -7.0590 C   0  0  0  0  0  0  0  0  0  0  0  0
   58.1160   16.9110   -6.8900 C   0  0  0  0  0  1  0  0  0  0  0  0
   55.9720   17.3490   -8.5790 S   0  0  0  0  0  0  0  0  0  0  0  0
   54.3790   17.4310   -8.0800 C   0  0  0  0  0  0  0  0  0  0  0  0
   53.2050   17.6890   -8.9640 C   0  0  0  0  0  1  0  0  0  0  0  0
   54.3250   17.2240   -6.7110 C   0  0  0  0  0  3  0  0  0  0  0  0
   55.7970   15.2810   -4.1680 C   0  0  0  0  0  2  0  0  0  0  0  0
   57.2430   14.7890   -4.2570 C   0  0  0  0  0  1  0  0  0  0  0  0
  1  2  1  0  0  0  0
  1 11  1  0  0  0  0
  2  4  2  0  0  0  0
  2  5  1  0  0  0  0
  3  2  2  0  0  0  0
  5  6  2  0  0  0  0
  6  7  1  0  0  0  0
  7  8  1  0  0  0  0
  9  7  1  0  0  0  0
 10  5  1  0  0  0  0
 10  9  2  0  0  0  0
 12 11  1  0  0  0  0
 12 13  1  0  0  0  0
 13 14  1  0  0  0  0
 15 13  2  0  0  0  0
 16 15  1  0  0  0  0
 17 16  2  0  0  0  0
 17 18  1  0  0  0  0
 18 12  2  0  0  0  0
 19 24  1  0  0  0  0
 19 16  1  0  0  0  0
 20 19  2  0  0  0  0
 21 22  2  0  0  0  0
 21 20  1  0  0  0  0
 22 23  1  0  0  0  0
 23 25  1  0  0  0  0
 23 24  2  0  0  0  0
 25 28  2  0  0  0  0
 26 25  2  0  0  0  0
 27 25  1  0  0  0  0
 29 37  1  6  0  0  0
 29  1  1  0  0  0  0
 30 29  1  0  0  0  0
 31 32  1  0  0  0  0
 31 30  2  0  0  0  0
 33 34  1  0  0  0  0
 33 31  1  0  0  0  0
 34 36  2  0  0  0  0
 35 34  1  0  0  0  0
 36 30  1  0  0  0  0
 38 37  1  0  0  0  0
M  END
>  <POSE>
1

>  <SCORE>
-8.354

>  <RMSD_LB_BP>
0.000

>  <RMSD_UB_BP>
0.000

$$$$
/content/4EXS_VS/DOCKING/CLC-0000183/CLC-0000183_output.pdbqt
 OpenBabel03062504413D

 38 41  0  0  1  0  0  0  0  0999 V2000
   54.6370   17.3420   -3.7690 N   0  0  0  0  0  0  0  0  0  0  0  0
   55.2510   18.9620   -3.2970 S   0  0  0  0  0  0  0  0  0  0  0  0
   55.5010   18.8680   -1.7840 O   0  0  0  0  0  0  0  0  0  0  0  0
   54.0350   19.9010   -3.3280 O   0  0  0  0  0  0  0  0  0  0  0  0
   56.6580   19.6730   -4.1490 C   0  0  0  0  0  0  0  0  0  0  0  0
   57.9570   19.6640   -3.6940 C   0  0  0  0  0  3  0  0  0  0  0  0
   58.7070   20.3010   -4.6070 N   0  0  0  0  0  0  0  0  0  0  0  0
   60.1430   20.5410   -4.5540 C   0  0  0  0  0  1  0  0  0  0  0  0
   57.8670   20.6810   -5.5890 C   0  0  0  0  0  3  0  0  0  0  0  0
   56.5950   20.3100   -5.3350 N   0  0  0  0  0  0  0  0  0  0  0  0
   54.0110   16.6550   -2.6230 C   0  0  0  0  0  2  0  0  0  0  0  0
   52.5410   16.3760   -2.8940 C   0  0  0  0  0  0  0  0  0  0  0  0
   51.8750   15.1560   -2.6080 C   0  0  0  0  0  0  0  0  0  0  0  0
   52.5340   13.9430   -1.9910 C   0  0  0  0  0  1  0  0  0  0  0  0
   50.5050   15.0320   -2.9120 C   0  0  0  0  0  3  0  0  0  0  0  0
   49.7590   16.0810   -3.5000 C   0  0  0  0  0  0  0  0  0  0  0  0
   50.4540   17.2790   -3.7740 C   0  0  0  0  0  3  0  0  0  0  0  0
   51.8070   17.4170   -3.4780 C   0  0  0  0  0  3  0  0  0  0  0  0
   48.2820   15.9290   -3.8270 C   0  0  0  0  0  0  0  0  0  0  0  0
   47.7580   14.7150   -4.3410 C   0  0  0  0  0  3  0  0  0  0  0  0
   46.4000   14.5770   -4.6400 C   0  0  0  0  0  3  0  0  0  0  0  0
   45.5230   15.6360   -4.4360 C   0  0  0  0  0  3  0  0  0  0  0  0
   45.9980   16.8440   -3.9290 C   0  0  0  0  0  0  0  0  0  0  0  0
   47.3600   16.9910   -3.6310 C   0  0  0  0  0  3  0  0  0  0  0  0
   44.8620   18.2120   -3.6700 S   0  0  0  0  0  0  0  0  0  0  0  0
   45.2520   19.3250   -4.6540 O   0  0  0  0  0  0  0  0  0  0  0  0
   43.0530   18.0900   -3.6660 C   0  0  0  0  0  1  0  0  0  0  0  0
   45.2820   18.9100   -2.3670 O   0  0  0  0  0  0  0  0  0  0  0  0
   55.6340   16.5610   -4.5570 C   0  0  2  0  0  3  0  0  0  0  0  0
   55.6020   16.9000   -6.0530 C   0  0  0  0  0  0  0  0  0  0  0  0
   56.6800   17.0480   -6.9630 C   0  0  0  0  0  0  0  0  0  0  0  0
   58.1610   16.9360   -6.7570 C   0  0  0  0  0  1  0  0  0  0  0  0
   56.0590   17.4500   -8.4760 S   0  0  0  0  0  0  0  0  0  0  0  0
   54.4490   17.4560   -8.0230 C   0  0  0  0  0  0  0  0  0  0  0  0
   53.2970   17.7530   -8.9230 C   0  0  0  0  0  1  0  0  0  0  0  0
   54.3600   17.1450   -6.6770 C   0  0  0  0  0  3  0  0  0  0  0  0
   55.6660   15.0420   -4.2390 C   0  0  0  0  0  2  0  0  0  0  0  0
   57.0660   14.5570   -3.8560 C   0  0  0  0  0  1  0  0  0  0  0  0
  1  2  1  0  0  0  0
  1 11  1  0  0  0  0
  2  3  2  0  0  0  0
  4  2  2  0  0  0  0
  5  6  2  0  0  0  0
  5  2  1  0  0  0  0
  7  8  1  0  0  0  0
  7  6  1  0  0  0  0
  9 10  2  0  0  0  0
  9  7  1  0  0  0  0
 10  5  1  0  0  0  0
 12 11  1  0  0  0  0
 12 13  1  0  0  0  0
 13 14  1  0  0  0  0
 15 13  2  0  0  0  0
 16 15  1  0  0  0  0
 17 16  2  0  0  0  0
 17 18  1  0  0  0  0
 18 12  2  0  0  0  0
 19 24  1  0  0  0  0
 19 16  1  0  0  0  0
 20 19  2  0  0  0  0
 21 22  2  0  0  0  0
 21 20  1  0  0  0  0
 22 23  1  0  0  0  0
 23 25  1  0  0  0  0
 23 24  2  0  0  0  0
 25 27  1  0  0  0  0
 25 28  2  0  0  0  0
 26 25  2  0  0  0  0
 29 37  1  6  0  0  0
 29  1  1  0  0  0  0
 30 29  1  0  0  0  0
 31 32  1  0  0  0  0
 31 30  2  0  0  0  0
 33 34  1  0  0  0  0
 33 31  1  0  0  0  0
 34 36  2  0  0  0  0
 35 34  1  0  0  0  0
 36 30  1  0  0  0  0
 37 38  1  0  0  0  0
M  END
>  <POSE>
2

>  <SCORE>
-7.766

>  <RMSD_LB_BP>
1.828

>  <RMSD_UB_BP>
2.559

$$$$
/content/4EXS_VS/DOCKING/CLC-0000183/CLC-0000183_output.pdbqt
 OpenBabel03062504413D

 38 41  0  0  1  0  0  0  0  0999 V2000
   55.3490   16.4890   -3.9460 N   0  0  0  0  0  0  0  0  0  0  0  0
   56.1480   16.2920   -5.5410 S   0  0  0  0  0  0  0  0  0  0  0  0
   56.1360   14.7790   -5.8080 O   0  0  0  0  0  0  0  0  0  0  0  0
   57.6470   16.5260   -5.2950 O   0  0  0  0  0  0  0  0  0  0  0  0
   55.5580   17.2120   -6.9620 C   0  0  0  0  0  0  0  0  0  0  0  0
   55.9110   18.5040   -7.2810 C   0  0  0  0  0  3  0  0  0  0  0  0
   55.2530   18.8340   -8.4040 N   0  0  0  0  0  0  0  0  0  0  0  0
   55.3090   20.1040   -9.1160 C   0  0  0  0  0  1  0  0  0  0  0  0
   54.5220   17.7550   -8.7460 C   0  0  0  0  0  3  0  0  0  0  0  0
   54.6870   16.7390   -7.8750 N   0  0  0  0  0  0  0  0  0  0  0  0
   54.5790   17.7470   -3.8870 C   0  0  0  0  0  2  0  0  0  0  0  0
   53.0860   17.4690   -3.8390 C   0  0  0  0  0  0  0  0  0  0  0  0
   52.1720   18.0670   -2.9320 C   0  0  0  0  0  0  0  0  0  0  0  0
   52.5530   19.0730   -1.8700 C   0  0  0  0  0  1  0  0  0  0  0  0
   50.8090   17.7180   -2.9960 C   0  0  0  0  0  3  0  0  0  0  0  0
   50.3080   16.7820   -3.9330 C   0  0  0  0  0  0  0  0  0  0  0  0
   51.2450   16.2050   -4.8180 C   0  0  0  0  0  3  0  0  0  0  0  0
   52.5940   16.5410   -4.7670 C   0  0  0  0  0  3  0  0  0  0  0  0
   48.8350   16.4110   -3.9870 C   0  0  0  0  0  0  0  0  0  0  0  0
   48.4150   15.0740   -4.2150 C   0  0  0  0  0  3  0  0  0  0  0  0
   47.0610   14.7350   -4.2630 C   0  0  0  0  0  3  0  0  0  0  0  0
   46.0840   15.7080   -4.0820 C   0  0  0  0  0  3  0  0  0  0  0  0
   46.4560   17.0310   -3.8520 C   0  0  0  0  0  0  0  0  0  0  0  0
   47.8130   17.3800   -3.8070 C   0  0  0  0  0  3  0  0  0  0  0  0
   45.1910   18.2860   -3.6240 S   0  0  0  0  0  0  0  0  0  0  0  0
   45.4830   19.4200   -4.6190 O   0  0  0  0  0  0  0  0  0  0  0  0
   43.4010   17.9910   -3.6360 C   0  0  0  0  0  1  0  0  0  0  0  0
   45.5260   19.0380   -2.3260 O   0  0  0  0  0  0  0  0  0  0  0  0
   56.2700   16.2130   -2.8070 C   0  0  2  0  0  3  0  0  0  0  0  0
   55.9500   14.8930   -2.0930 C   0  0  0  0  0  0  0  0  0  0  0  0
   56.7910   14.0760   -1.2950 C   0  0  0  0  0  0  0  0  0  0  0  0
   58.2340   14.2300   -0.9140 C   0  0  0  0  0  1  0  0  0  0  0  0
   55.9150   12.7310   -0.7870 S   0  0  0  0  0  0  0  0  0  0  0  0
   54.4860   13.1360   -1.5550 C   0  0  0  0  0  0  0  0  0  0  0  0
   53.2280   12.3350   -1.5230 C   0  0  0  0  0  1  0  0  0  0  0  0
   54.6610   14.3330   -2.2280 C   0  0  0  0  0  3  0  0  0  0  0  0
   56.5120   17.4180   -1.8590 C   0  0  0  0  0  2  0  0  0  0  0  0
   55.6280   17.3650   -0.6110 C   0  0  0  0  0  1  0  0  0  0  0  0
  1 11  1  0  0  0  0
  1 29  1  0  0  0  0
  2  4  2  0  0  0  0
  2  1  1  0  0  0  0
  3  2  2  0  0  0  0
  5  2  1  0  0  0  0
  6  5  2  0  0  0  0
  7  6  1  0  0  0  0
  8  7  1  0  0  0  0
  9  7  1  0  0  0  0
  9 10  2  0  0  0  0
 10  5  1  0  0  0  0
 11 12  1  0  0  0  0
 12 13  1  0  0  0  0
 13 14  1  0  0  0  0
 15 13  2  0  0  0  0
 16 15  1  0  0  0  0
 17 18  1  0  0  0  0
 17 16  2  0  0  0  0
 18 12  2  0  0  0  0
 19 16  1  0  0  0  0
 19 24  1  0  0  0  0
 20 19  2  0  0  0  0
 21 20  1  0  0  0  0
 21 22  2  0  0  0  0
 22 23  1  0  0  0  0
 23 24  2  0  0  0  0
 23 25  1  0  0  0  0
 25 28  2  0  0  0  0
 26 25  2  0  0  0  0
 27 25  1  0  0  0  0
 29 30  1  0  0  0  0
 29 37  1  1  0  0  0
 30 31  2  0  0  0  0
 31 32  1  0  0  0  0
 31 33  1  0  0  0  0
 34 35  1  0  0  0  0
 34 33  1  0  0  0  0
 36 30  1  0  0  0  0
 36 34  2  0  0  0  0
 37 38  1  0  0  0  0
M  END
>  <POSE>
3

>  <SCORE>
-7.677

>  <RMSD_LB_BP>
2.455

>  <RMSD_UB_BP>
4.839

$$$$
/content/4EXS_VS/DOCKING/CLC-0000183/CLC-0000183_output.pdbqt
 OpenBabel03062504413D

 38 41  0  0  1  0  0  0  0  0999 V2000
   55.1370   17.6760   -2.8320 N   0  0  0  0  0  0  0  0  0  0  0  0
   56.1390   16.6270   -1.7750 S   0  0  0  0  0  0  0  0  0  0  0  0
   55.5950   16.8540   -0.3570 O   0  0  0  0  0  0  0  0  0  0  0  0
   57.5080   17.3170   -1.6700 O   0  0  0  0  0  0  0  0  0  0  0  0
   56.3050   14.8800   -2.1410 C   0  0  0  0  0  0  0  0  0  0  0  0
   55.2870   13.9550   -2.1030 C   0  0  0  0  0  3  0  0  0  0  0  0
   55.8140   12.7630   -2.4280 N   0  0  0  0  0  0  0  0  0  0  0  0
   55.1180   11.4870   -2.5160 C   0  0  0  0  0  1  0  0  0  0  0  0
   57.1240   12.9780   -2.6540 C   0  0  0  0  0  3  0  0  0  0  0  0
   57.4590   14.2740   -2.4830 N   0  0  0  0  0  0  0  0  0  0  0  0
   54.8080   16.9970   -4.1000 C   0  0  0  0  0  2  0  0  0  0  0  0
   53.3120   16.7590   -4.2170 C   0  0  0  0  0  0  0  0  0  0  0  0
   52.5900   16.6780   -5.4370 C   0  0  0  0  0  0  0  0  0  0  0  0
   53.2070   16.8210   -6.8090 C   0  0  0  0  0  1  0  0  0  0  0  0
   51.2000   16.4520   -5.4010 C   0  0  0  0  0  3  0  0  0  0  0  0
   50.4850   16.3070   -4.1880 C   0  0  0  0  0  0  0  0  0  0  0  0
   51.2330   16.3970   -2.9940 C   0  0  0  0  0  3  0  0  0  0  0  0
   52.6070   16.6170   -3.0130 C   0  0  0  0  0  3  0  0  0  0  0  0
   48.9830   16.0700   -4.1650 C   0  0  0  0  0  0  0  0  0  0  0  0
   48.4340   14.7780   -4.3750 C   0  0  0  0  0  3  0  0  0  0  0  0
   47.0540   14.5620   -4.3530 C   0  0  0  0  0  3  0  0  0  0  0  0
   46.1790   15.6170   -4.1200 C   0  0  0  0  0  3  0  0  0  0  0  0
   46.6790   16.9000   -3.9060 C   0  0  0  0  0  0  0  0  0  0  0  0
   48.0630   17.1250   -3.9310 C   0  0  0  0  0  3  0  0  0  0  0  0
   45.5460   18.2620   -3.6100 S   0  0  0  0  0  0  0  0  0  0  0  0
   45.9600   19.4150   -4.5360 O   0  0  0  0  0  0  0  0  0  0  0  0
   43.7360   18.1500   -3.6440 C   0  0  0  0  0  1  0  0  0  0  0  0
   45.9440   18.9000   -2.2690 O   0  0  0  0  0  0  0  0  0  0  0  0
   55.6730   19.0640   -2.9330 C   0  0  2  0  0  3  0  0  0  0  0  0
   54.7150   20.1130   -2.3530 C   0  0  0  0  0  0  0  0  0  0  0  0
   54.4240   21.4200   -2.8200 C   0  0  0  0  0  0  0  0  0  0  0  0
   54.9560   22.1830   -3.9970 C   0  0  0  0  0  1  0  0  0  0  0  0
   53.3140   22.1330   -1.7740 S   0  0  0  0  0  0  0  0  0  0  0  0
   53.1860   20.8390   -0.7230 C   0  0  0  0  0  0  0  0  0  0  0  0
   52.3260   20.7940    0.4950 C   0  0  0  0  0  1  0  0  0  0  0  0
   54.0100   19.8180   -1.1650 C   0  0  0  0  0  3  0  0  0  0  0  0
   56.2700   19.4310   -4.3180 C   0  0  0  0  0  2  0  0  0  0  0  0
   57.7490   19.8140   -4.2320 C   0  0  0  0  0  1  0  0  0  0  0  0
  1  2  1  0  0  0  0
  2  4  2  0  0  0  0
  2  3  2  0  0  0  0
  5  6  2  0  0  0  0
  5  2  1  0  0  0  0
  7  6  1  0  0  0  0
  8  7  1  0  0  0  0
  9 10  2  0  0  0  0
  9  7  1  0  0  0  0
 10  5  1  0  0  0  0
 11  1  1  0  0  0  0
 12 11  1  0  0  0  0
 12 18  1  0  0  0  0
 13 15  1  0  0  0  0
 13 12  2  0  0  0  0
 14 13  1  0  0  0  0
 15 16  2  0  0  0  0
 16 19  1  0  0  0  0
 16 17  1  0  0  0  0
 18 17  2  0  0  0  0
 19 24  1  0  0  0  0
 20 21  1  0  0  0  0
 20 19  2  0  0  0  0
 21 22  2  0  0  0  0
 22 23  1  0  0  0  0
 23 25  1  0  0  0  0
 24 23  2  0  0  0  0
 25 28  2  0  0  0  0
 26 25  2  0  0  0  0
 27 25  1  0  0  0  0
 29 37  1  6  0  0  0
 29  1  1  0  0  0  0
 29 30  1  0  0  0  0
 30 36  1  0  0  0  0
 31 30  2  0  0  0  0
 31 33  1  0  0  0  0
 32 31  1  0  0  0  0
 33 34  1  0  0  0  0
 34 35  1  0  0  0  0
 36 34  2  0  0  0  0
 37 38  1  0  0  0  0
M  END
>  <POSE>
4

>  <SCORE>
-7.540

>  <RMSD_LB_BP>
2.284

>  <RMSD_UB_BP>
5.041

$$$$
/content/4EXS_VS/DOCKING/CLC-0000183/CLC-0000183_output.pdbqt
 OpenBabel03062504413D

 38 41  0  0  1  0  0  0  0  0999 V2000
   54.8680   18.6960   -4.1330 N   0  0  0  0  0  0  0  0  0  0  0  0
   55.4190   20.3710   -3.7940 S   0  0  0  0  0  0  0  0  0  0  0  0
   55.0250   20.6310   -2.3320 O   0  0  0  0  0  0  0  0  0  0  0  0
   54.4340   21.2970   -4.5250 O   0  0  0  0  0  0  0  0  0  0  0  0
   57.1210   20.8370   -4.1060 C   0  0  0  0  0  0  0  0  0  0  0  0
   58.2250   20.0550   -3.8480 C   0  0  0  0  0  3  0  0  0  0  0  0
   59.3090   20.7600   -4.2080 N   0  0  0  0  0  0  0  0  0  0  0  0
   60.7020   20.3420   -4.1150 C   0  0  0  0  0  1  0  0  0  0  0  0
   58.8570   21.9400   -4.6730 C   0  0  0  0  0  3  0  0  0  0  0  0
   57.5110   22.0190   -4.6210 N   0  0  0  0  0  0  0  0  0  0  0  0
   54.3240   18.0570   -2.9190 C   0  0  0  0  0  2  0  0  0  0  0  0
   52.8460   17.7450   -3.0850 C   0  0  0  0  0  0  0  0  0  0  0  0
   51.7830   18.5050   -2.5310 C   0  0  0  0  0  0  0  0  0  0  0  0
   51.9660   19.7460   -1.6860 C   0  0  0  0  0  1  0  0  0  0  0  0
   50.4540   18.1020   -2.7620 C   0  0  0  0  0  3  0  0  0  0  0  0
   50.1300   16.9550   -3.5270 C   0  0  0  0  0  0  0  0  0  0  0  0
   51.2120   16.2210   -4.0600 C   0  0  0  0  0  3  0  0  0  0  0  0
   52.5300   16.6080   -3.8410 C   0  0  0  0  0  3  0  0  0  0  0  0
   48.6900   16.5290   -3.7640 C   0  0  0  0  0  0  0  0  0  0  0  0
   48.3630   15.2020   -4.1470 C   0  0  0  0  0  3  0  0  0  0  0  0
   47.0390   14.8120   -4.3630 C   0  0  0  0  0  3  0  0  0  0  0  0
   46.0010   15.7230   -4.2020 C   0  0  0  0  0  3  0  0  0  0  0  0
   46.2810   17.0340   -3.8220 C   0  0  0  0  0  0  0  0  0  0  0  0
   47.6070   17.4340   -3.6080 C   0  0  0  0  0  3  0  0  0  0  0  0
   44.9370   18.2100   -3.6190 S   0  0  0  0  0  0  0  0  0  0  0  0
   45.1810   19.3610   -4.6080 O   0  0  0  0  0  0  0  0  0  0  0  0
   43.1700   17.8060   -3.6680 C   0  0  0  0  0  1  0  0  0  0  0  0
   45.2000   18.9790   -2.3140 O   0  0  0  0  0  0  0  0  0  0  0  0
   55.8680   17.9120   -4.9130 C   0  0  2  0  0  3  0  0  0  0  0  0
   55.7820   18.1770   -6.4220 C   0  0  0  0  0  0  0  0  0  0  0  0
   54.8270   17.7140   -7.3620 C   0  0  0  0  0  0  0  0  0  0  0  0
   53.6290   16.8270   -7.1890 C   0  0  0  0  0  1  0  0  0  0  0  0
   55.2400   18.2980   -8.8860 S   0  0  0  0  0  0  0  0  0  0  0  0
   56.6130   19.1230   -8.4060 C   0  0  0  0  0  0  0  0  0  0  0  0
   57.5130   19.9040   -9.3030 C   0  0  0  0  0  1  0  0  0  0  0  0
   56.7810   18.9600   -7.0410 C   0  0  0  0  0  3  0  0  0  0  0  0
   55.9650   16.4120   -4.5250 C   0  0  0  0  0  2  0  0  0  0  0  0
   57.4110   15.9520   -4.3320 C   0  0  0  0  0  1  0  0  0  0  0  0
  1  2  1  0  0  0  0
  1 11  1  0  0  0  0
  2  3  2  0  0  0  0
  4  2  2  0  0  0  0
  5  6  2  0  0  0  0
  5  2  1  0  0  0  0
  7  8  1  0  0  0  0
  7  6  1  0  0  0  0
  9 10  2  0  0  0  0
  9  7  1  0  0  0  0
 10  5  1  0  0  0  0
 12 11  1  0  0  0  0
 12 13  1  0  0  0  0
 13 14  1  0  0  0  0
 15 13  2  0  0  0  0
 16 15  1  0  0  0  0
 17 18  1  0  0  0  0
 17 16  2  0  0  0  0
 18 12  2  0  0  0  0
 19 24  1  0  0  0  0
 19 16  1  0  0  0  0
 20 19  2  0  0  0  0
 21 22  2  0  0  0  0
 21 20  1  0  0  0  0
 22 23  1  0  0  0  0
 23 25  1  0  0  0  0
 23 24  2  0  0  0  0
 25 28  2  0  0  0  0
 26 25  2  0  0  0  0
 27 25  1  0  0  0  0
 29 37  1  6  0  0  0
 29  1  1  0  0  0  0
 30 29  1  0  0  0  0
 31 32  1  0  0  0  0
 31 30  2  0  0  0  0
 33 34  1  0  0  0  0
 33 31  1  0  0  0  0
 34 36  2  0  0  0  0
 35 34  1  0  0  0  0
 36 30  1  0  0  0  0
 37 38  1  0  0  0  0
M  END
>  <POSE>
5

>  <SCORE>
-7.344

>  <RMSD_LB_BP>
2.275

>  <RMSD_UB_BP>
3.260

$$$$
/content/4EXS_VS/DOCKING/CLC-0000183/CLC-0000183_output.pdbqt
 OpenBabel03062504413D

 38 41  0  0  1  0  0  0  0  0999 V2000
   55.2930   17.7250   -3.6040 N   0  0  0  0  0  0  0  0  0  0  0  0
   55.7720   18.7460   -5.0010 S   0  0  0  0  0  0  0  0  0  0  0  0
   55.0860   20.0990   -4.7590 O   0  0  0  0  0  0  0  0  0  0  0  0
   54.9630   18.2270   -6.2010 O   0  0  0  0  0  0  0  0  0  0  0  0
   57.5040   18.9530   -5.4100 C   0  0  0  0  0  0  0  0  0  0  0  0
   58.2850   18.0350   -6.0740 C   0  0  0  0  0  3  0  0  0  0  0  0
   59.5180   18.5550   -6.1770 N   0  0  0  0  0  0  0  0  0  0  0  0
   60.6840   17.9420   -6.8000 C   0  0  0  0  0  1  0  0  0  0  0  0
   59.4700   19.7630   -5.5830 C   0  0  0  0  0  3  0  0  0  0  0  0
   58.2420   20.0370   -5.0980 N   0  0  0  0  0  0  0  0  0  0  0  0
   54.4190   18.4680   -2.6750 C   0  0  0  0  0  2  0  0  0  0  0  0
   52.9630   18.0810   -2.8730 C   0  0  0  0  0  0  0  0  0  0  0  0
   51.8530   18.7620   -2.3070 C   0  0  0  0  0  0  0  0  0  0  0  0
   51.9560   19.9780   -1.4160 C   0  0  0  0  0  1  0  0  0  0  0  0
   50.5510   18.2940   -2.5720 C   0  0  0  0  0  3  0  0  0  0  0  0
   50.3000   17.1610   -3.3830 C   0  0  0  0  0  0  0  0  0  0  0  0
   51.4270   16.5070   -3.9260 C   0  0  0  0  0  3  0  0  0  0  0  0
   52.7190   16.9570   -3.6750 C   0  0  0  0  0  3  0  0  0  0  0  0
   48.8890   16.6660   -3.6550 C   0  0  0  0  0  0  0  0  0  0  0  0
   48.6340   15.3180   -4.0200 C   0  0  0  0  0  3  0  0  0  0  0  0
   47.3360   14.8650   -4.2680 C   0  0  0  0  0  3  0  0  0  0  0  0
   46.2540   15.7310   -4.1600 C   0  0  0  0  0  3  0  0  0  0  0  0
   46.4630   17.0610   -3.8000 C   0  0  0  0  0  0  0  0  0  0  0  0
   47.7630   17.5240   -3.5530 C   0  0  0  0  0  3  0  0  0  0  0  0
   45.0630   18.1790   -3.6650 S   0  0  0  0  0  0  0  0  0  0  0  0
   45.3010   19.3350   -4.6490 O   0  0  0  0  0  0  0  0  0  0  0  0
   43.3180   17.6990   -3.7910 C   0  0  0  0  0  1  0  0  0  0  0  0
   45.2330   18.9630   -2.3540 O   0  0  0  0  0  0  0  0  0  0  0  0
   56.4500   17.0010   -3.0020 C   0  0  2  0  0  3  0  0  0  0  0  0
   56.2300   15.4850   -2.9360 C   0  0  0  0  0  0  0  0  0  0  0  0
   56.7810   14.4610   -3.7480 C   0  0  0  0  0  0  0  0  0  0  0  0
   57.7230   14.5320   -4.9130 C   0  0  0  0  0  1  0  0  0  0  0  0
   56.1690   12.9770   -3.2370 S   0  0  0  0  0  0  0  0  0  0  0  0
   55.2060   13.5830   -2.0120 C   0  0  0  0  0  0  0  0  0  0  0  0
   54.3390   12.7700   -1.1090 C   0  0  0  0  0  1  0  0  0  0  0  0
   55.3400   14.9600   -1.9730 C   0  0  0  0  0  3  0  0  0  0  0  0
   57.0030   17.6320   -1.6960 C   0  0  0  0  0  2  0  0  0  0  0  0
   58.4440   18.1230   -1.8510 C   0  0  0  0  0  1  0  0  0  0  0  0
  1 29  1  0  0  0  0
  1 11  1  0  0  0  0
  2  3  2  0  0  0  0
  2  1  1  0  0  0  0
  4  2  2  0  0  0  0
  5 10  1  0  0  0  0
  5  2  1  0  0  0  0
  6  5  2  0  0  0  0
  7  6  1  0  0  0  0
  7  9  1  0  0  0  0
  8  7  1  0  0  0  0
  9 10  2  0  0  0  0
 12 11  1  0  0  0  0
 12 13  1  0  0  0  0
 13 14  1  0  0  0  0
 15 13  2  0  0  0  0
 16 15  1  0  0  0  0
 17 18  1  0  0  0  0
 17 16  2  0  0  0  0
 18 12  2  0  0  0  0
 19 24  1  0  0  0  0
 19 16  1  0  0  0  0
 20 19  2  0  0  0  0
 21 22  2  0  0  0  0
 21 20  1  0  0  0  0
 22 23  1  0  0  0  0
 23 25  1  0  0  0  0
 23 24  2  0  0  0  0
 25 28  2  0  0  0  0
 26 25  2  0  0  0  0
 27 25  1  0  0  0  0
 29 30  1  0  0  0  0
 29 37  1  1  0  0  0
 30 36  1  0  0  0  0
 31 33  1  0  0  0  0
 31 30  2  0  0  0  0
 32 31  1  0  0  0  0
 33 34  1  0  0  0  0
 34 36  2  0  0  0  0
 34 35  1  0  0  0  0
 38 37  1  0  0  0  0
M  END
>  <POSE>
6

>  <SCORE>
-7.096

>  <RMSD_LB_BP>
2.287

>  <RMSD_UB_BP>
4.458

$$$$
/content/4EXS_VS/DOCKING/CLC-0000183/CLC-0000183_output.pdbqt
 OpenBabel03062504413D

 38 41  0  0  1  0  0  0  0  0999 V2000
   53.5850   17.2820   -4.1230 N   0  0  0  0  0  0  0  0  0  0  0  0
   53.6390   18.5220   -2.8270 S   0  0  0  0  0  0  0  0  0  0  0  0
   52.1690   18.8840   -2.5620 O   0  0  0  0  0  0  0  0  0  0  0  0
   54.1350   19.8130   -3.4970 O   0  0  0  0  0  0  0  0  0  0  0  0
   54.5160   18.1890   -1.3000 C   0  0  0  0  0  0  0  0  0  0  0  0
   55.4380   17.1850   -1.1100 C   0  0  0  0  0  3  0  0  0  0  0  0
   55.8570   17.2600    0.1630 N   0  0  0  0  0  0  0  0  0  0  0  0
   56.8310   16.3990    0.8210 C   0  0  0  0  0  1  0  0  0  0  0  0
   55.1950   18.2920    0.7200 C   0  0  0  0  0  3  0  0  0  0  0  0
   54.3580   18.8840   -0.1570 N   0  0  0  0  0  0  0  0  0  0  0  0
   52.7770   16.1170   -3.7150 C   0  0  0  0  0  2  0  0  0  0  0  0
   51.2920   16.4310   -3.7940 C   0  0  0  0  0  0  0  0  0  0  0  0
   50.5990   16.8130   -4.9720 C   0  0  0  0  0  0  0  0  0  0  0  0
   51.2410   16.9670   -6.3320 C   0  0  0  0  0  1  0  0  0  0  0  0
   49.2170   17.0770   -4.9040 C   0  0  0  0  0  3  0  0  0  0  0  0
   48.4840   16.9820   -3.6970 C   0  0  0  0  0  0  0  0  0  0  0  0
   49.2060   16.6040   -2.5440 C   0  0  0  0  0  3  0  0  0  0  0  0
   50.5710   16.3380   -2.5950 C   0  0  0  0  0  3  0  0  0  0  0  0
   46.9940   17.2760   -3.6380 C   0  0  0  0  0  0  0  0  0  0  0  0
   46.4940   18.4500   -3.0170 C   0  0  0  0  0  3  0  0  0  0  0  0
   45.1240   18.7190   -2.9660 C   0  0  0  0  0  3  0  0  0  0  0  0
   44.2110   17.8350   -3.5290 C   0  0  0  0  0  3  0  0  0  0  0  0
   44.6620   16.6730   -4.1510 C   0  0  0  0  0  0  0  0  0  0  0  0
   46.0350   16.3940   -4.2030 C   0  0  0  0  0  3  0  0  0  0  0  0
   43.4790   15.5300   -4.8740 S   0  0  0  0  0  0  0  0  0  0  0  0
   43.0780   14.5290   -3.7790 O   0  0  0  0  0  0  0  0  0  0  0  0
   41.9730   16.0020   -5.7670 C   0  0  0  0  0  1  0  0  0  0  0  0
   44.2690   14.5690   -5.7760 O   0  0  0  0  0  0  0  0  0  0  0  0
   54.9330   16.9950   -4.6960 C   0  0  2  0  0  3  0  0  0  0  0  0
   55.3370   17.9950   -5.7880 C   0  0  0  0  0  0  0  0  0  0  0  0
   54.9840   18.0160   -7.1610 C   0  0  0  0  0  0  0  0  0  0  0  0
   54.1330   17.0820   -7.9700 C   0  0  0  0  0  1  0  0  0  0  0  0
   55.7370   19.3320   -7.8930 S   0  0  0  0  0  0  0  0  0  0  0  0
   56.5180   19.8880   -6.5230 C   0  0  0  0  0  0  0  0  0  0  0  0
   57.4080   21.0840   -6.4580 C   0  0  0  0  0  1  0  0  0  0  0  0
   56.2090   19.0560   -5.4600 C   0  0  0  0  0  3  0  0  0  0  0  0
   55.1820   15.5060   -5.0580 C   0  0  0  0  0  2  0  0  0  0  0  0
   56.6550   15.2170   -5.3520 C   0  0  0  0  0  1  0  0  0  0  0  0
  1 11  1  0  0  0  0
  1  2  1  0  0  0  0
  2  3  2  0  0  0  0
  2  5  1  0  0  0  0
  4  2  2  0  0  0  0
  5  6  2  0  0  0  0
  5 10  1  0  0  0  0
  6  7  1  0  0  0  0
  7  9  1  0  0  0  0
  7  8  1  0  0  0  0
 10  9  2  0  0  0  0
 12 11  1  0  0  0  0
 12 18  1  0  0  0  0
 13 15  1  0  0  0  0
 13 12  2  0  0  0  0
 14 13  1  0  0  0  0
 15 16  2  0  0  0  0
 16 19  1  0  0  0  0
 16 17  1  0  0  0  0
 18 17  2  0  0  0  0
 19 20  1  0  0  0  0
 20 21  2  0  0  0  0
 22 21  1  0  0  0  0
 23 22  2  0  0  0  0
 24 23  1  0  0  0  0
 24 19  2  0  0  0  0
 25 23  1  0  0  0  0
 25 26  2  0  0  0  0
 27 25  1  0  0  0  0
 28 25  2  0  0  0  0
 29 37  1  6  0  0  0
 29  1  1  0  0  0  0
 30 36  1  0  0  0  0
 30 29  1  0  0  0  0
 31 30  2  0  0  0  0
 32 31  1  0  0  0  0
 33 31  1  0  0  0  0
 33 34  1  0  0  0  0
 34 35  1  0  0  0  0
 34 36  2  0  0  0  0
 38 37  1  0  0  0  0
M  END
>  <POSE>
7

>  <SCORE>
-6.959

>  <RMSD_LB_BP>
2.433

>  <RMSD_UB_BP>
3.309

$$$$
/content/4EXS_VS/DOCKING/CLC-0000183/CLC-0000183_output.pdbqt
 OpenBabel03062504413D

 38 41  0  0  1  0  0  0  0  0999 V2000
   54.8410   17.9980   -5.6400 N   0  0  0  0  0  0  0  0  0  0  0  0
   56.0160   19.3390   -5.4350 S   0  0  0  0  0  0  0  0  0  0  0  0
   55.2380   20.4410   -4.6990 O   0  0  0  0  0  0  0  0  0  0  0  0
   56.1730   19.9800   -6.8230 O   0  0  0  0  0  0  0  0  0  0  0  0
   57.6040   19.0330   -4.6630 C   0  0  0  0  0  0  0  0  0  0  0  0
   57.8040   18.3350   -3.4940 C   0  0  0  0  0  3  0  0  0  0  0  0
   59.1240   18.3350   -3.2470 N   0  0  0  0  0  0  0  0  0  0  0  0
   59.8080   17.7210   -2.1160 C   0  0  0  0  0  1  0  0  0  0  0  0
   59.6980   19.0220   -4.2530 C   0  0  0  0  0  3  0  0  0  0  0  0
   58.7870   19.4670   -5.1430 N   0  0  0  0  0  0  0  0  0  0  0  0
   54.5180   17.3690   -4.3450 C   0  0  0  0  0  2  0  0  0  0  0  0
   53.0210   17.1470   -4.2060 C   0  0  0  0  0  0  0  0  0  0  0  0
   52.1990   17.7260   -3.2040 C   0  0  0  0  0  0  0  0  0  0  0  0
   52.6950   18.6520   -2.1170 C   0  0  0  0  0  1  0  0  0  0  0  0
   50.8210   17.4340   -3.1910 C   0  0  0  0  0  3  0  0  0  0  0  0
   50.2170   16.5760   -4.1410 C   0  0  0  0  0  0  0  0  0  0  0  0
   51.0650   16.0160   -5.1210 C   0  0  0  0  0  3  0  0  0  0  0  0
   52.4270   16.2950   -5.1480 C   0  0  0  0  0  3  0  0  0  0  0  0
   48.7280   16.2670   -4.1100 C   0  0  0  0  0  0  0  0  0  0  0  0
   48.2420   14.9460   -4.2910 C   0  0  0  0  0  3  0  0  0  0  0  0
   46.8740   14.6630   -4.2610 C   0  0  0  0  0  3  0  0  0  0  0  0
   45.9500   15.6790   -4.0480 C   0  0  0  0  0  3  0  0  0  0  0  0
   46.3870   16.9890   -3.8620 C   0  0  0  0  0  0  0  0  0  0  0  0
   47.7580   17.2810   -3.8950 C   0  0  0  0  0  3  0  0  0  0  0  0
   45.1890   18.3000   -3.5910 S   0  0  0  0  0  0  0  0  0  0  0  0
   45.5550   19.4590   -4.5310 O   0  0  0  0  0  0  0  0  0  0  0  0
   43.3870   18.1030   -3.6340 C   0  0  0  0  0  1  0  0  0  0  0  0
   45.5490   18.9750   -2.2570 O   0  0  0  0  0  0  0  0  0  0  0  0
   55.2090   17.0810   -6.7580 C   0  0  2  0  0  3  0  0  0  0  0  0
   56.5880   16.4360   -6.5650 C   0  0  0  0  0  0  0  0  0  0  0  0
   57.8050   16.6970   -7.2450 C   0  0  0  0  0  0  0  0  0  0  0  0
   58.1230   17.6540   -8.3550 C   0  0  0  0  0  1  0  0  0  0  0  0
   58.9940   15.6720   -6.6370 S   0  0  0  0  0  0  0  0  0  0  0  0
   58.0190   14.8850   -5.5310 C   0  0  0  0  0  0  0  0  0  0  0  0
   58.4560   13.7970   -4.6090 C   0  0  0  0  0  1  0  0  0  0  0  0
   56.7380   15.4050   -5.6120 C   0  0  0  0  0  3  0  0  0  0  0  0
   54.9570   17.6550   -8.1780 C   0  0  0  0  0  2  0  0  0  0  0  0
   53.4670   17.7740   -8.5020 C   0  0  0  0  0  1  0  0  0  0  0  0
  1  2  1  0  0  0  0
  1 11  1  0  0  0  0
  2  3  2  0  0  0  0
  2  5  1  0  0  0  0
  4  2  2  0  0  0  0
  5  6  2  0  0  0  0
  6  7  1  0  0  0  0
  7  8  1  0  0  0  0
  9  7  1  0  0  0  0
 10  5  1  0  0  0  0
 10  9  2  0  0  0  0
 11 12  1  0  0  0  0
 12 13  1  0  0  0  0
 13 15  2  0  0  0  0
 13 14  1  0  0  0  0
 16 19  1  0  0  0  0
 16 15  1  0  0  0  0
 17 16  2  0  0  0  0
 18 17  1  0  0  0  0
 18 12  2  0  0  0  0
 19 24  1  0  0  0  0
 20 21  1  0  0  0  0
 20 19  2  0  0  0  0
 21 22  2  0  0  0  0
 22 23  1  0  0  0  0
 23 25  1  0  0  0  0
 24 23  2  0  0  0  0
 25 28  2  0  0  0  0
 26 25  2  0  0  0  0
 27 25  1  0  0  0  0
 29 37  1  6  0  0  0
 29 30  1  0  0  0  0
 29  1  1  0  0  0  0
 30 36  1  0  0  0  0
 31 33  1  0  0  0  0
 31 30  2  0  0  0  0
 32 31  1  0  0  0  0
 33 34  1  0  0  0  0
 34 35  1  0  0  0  0
 36 34  2  0  0  0  0
 38 37  1  0  0  0  0
M  END
>  <POSE>
8

>  <SCORE>
-6.686

>  <RMSD_LB_BP>
2.073

>  <RMSD_UB_BP>
3.712

$$$$
/content/4EXS_VS/DOCKING/CLC-0000183/CLC-0000183_output.pdbqt
 OpenBabel03062504413D

 38 41  0  0  1  0  0  0  0  0999 V2000
   56.9240   17.1670   -5.2960 N   0  0  0  0  0  0  0  0  0  0  0  0
   57.1630   17.6780   -7.0010 S   0  0  0  0  0  0  0  0  0  0  0  0
   57.9140   16.5130   -7.6640 O   0  0  0  0  0  0  0  0  0  0  0  0
   58.2650   18.7480   -6.9710 O   0  0  0  0  0  0  0  0  0  0  0  0
   55.7610   18.1990   -7.9880 C   0  0  0  0  0  0  0  0  0  0  0  0
   55.2830   19.4870   -8.0820 C   0  0  0  0  0  3  0  0  0  0  0  0
   54.2230   19.4620   -8.9050 N   0  0  0  0  0  0  0  0  0  0  0  0
   53.3910   20.5910   -9.3030 C   0  0  0  0  0  1  0  0  0  0  0  0
   54.0730   18.1810   -9.2930 C   0  0  0  0  0  3  0  0  0  0  0  0
   55.0050   17.3760   -8.7420 N   0  0  0  0  0  0  0  0  0  0  0  0
   56.2900   18.2370   -4.5030 C   0  0  0  0  0  2  0  0  0  0  0  0
   54.8910   17.8340   -4.0660 C   0  0  0  0  0  0  0  0  0  0  0  0
   54.1740   18.4110   -2.9860 C   0  0  0  0  0  0  0  0  0  0  0  0
   54.7000   19.5190   -2.1020 C   0  0  0  0  0  1  0  0  0  0  0  0
   52.8800   17.9400   -2.6880 C   0  0  0  0  0  3  0  0  0  0  0  0
   52.2620   16.9010   -3.4240 C   0  0  0  0  0  0  0  0  0  0  0  0
   53.0050   16.3480   -4.4890 C   0  0  0  0  0  3  0  0  0  0  0  0
   54.2830   16.8040   -4.7970 C   0  0  0  0  0  3  0  0  0  0  0  0
   50.8660   16.4000   -3.0860 C   0  0  0  0  0  0  0  0  0  0  0  0
   50.6590   15.1190   -2.5100 C   0  0  0  0  0  3  0  0  0  0  0  0
   49.3760   14.6610   -2.2000 C   0  0  0  0  0  3  0  0  0  0  0  0
   48.2640   15.4570   -2.4470 C   0  0  0  0  0  3  0  0  0  0  0  0
   48.4270   16.7220   -3.0080 C   0  0  0  0  0  0  0  0  0  0  0  0
   49.7100   17.1880   -3.3270 C   0  0  0  0  0  3  0  0  0  0  0  0
   46.9870   17.7470   -3.3310 S   0  0  0  0  0  0  0  0  0  0  0  0
   47.3470   18.6950   -4.4860 O   0  0  0  0  0  0  0  0  0  0  0  0
   45.3050   17.1360   -3.6240 C   0  0  0  0  0  1  0  0  0  0  0  0
   46.9100   18.7900   -2.2040 O   0  0  0  0  0  0  0  0  0  0  0  0
   58.1420   16.5320   -4.7140 C   0  0  2  0  0  3  0  0  0  0  0  0
   57.8080   15.4580   -3.6710 C   0  0  0  0  0  0  0  0  0  0  0  0
   57.5750   15.6000   -2.2790 C   0  0  0  0  0  0  0  0  0  0  0  0
   57.5930   16.8150   -1.3990 C   0  0  0  0  0  1  0  0  0  0  0  0
   57.2780   14.0780   -1.6230 S   0  0  0  0  0  0  0  0  0  0  0  0
   57.4430   13.2220   -3.0490 C   0  0  0  0  0  0  0  0  0  0  0  0
   57.3020   11.7440   -3.1950 C   0  0  0  0  0  1  0  0  0  0  0  0
   57.7360   14.1070   -4.0730 C   0  0  0  0  0  3  0  0  0  0  0  0
   59.2520   17.5290   -4.2840 C   0  0  0  0  0  2  0  0  0  0  0  0
   60.6570   16.9780   -4.5320 C   0  0  0  0  0  1  0  0  0  0  0  0
  1 29  1  0  0  0  0
  1 11  1  0  0  0  0
  2  4  2  0  0  0  0
  2  1  1  0  0  0  0
  3  2  2  0  0  0  0
  5  2  1  0  0  0  0
  6  5  2  0  0  0  0
  7  6  1  0  0  0  0
  8  7  1  0  0  0  0
  9  7  1  0  0  0  0
  9 10  2  0  0  0  0
 10  5  1  0  0  0  0
 11 12  1  0  0  0  0
 12 13  1  0  0  0  0
 13 15  2  0  0  0  0
 13 14  1  0  0  0  0
 16 19  1  0  0  0  0
 16 15  1  0  0  0  0
 17 16  2  0  0  0  0
 18 17  1  0  0  0  0
 18 12  2  0  0  0  0
 19 20  1  0  0  0  0
 20 21  2  0  0  0  0
 22 21  1  0  0  0  0
 23 22  2  0  0  0  0
 24 19  2  0  0  0  0
 24 23  1  0  0  0  0
 25 23  1  0  0  0  0
 25 28  2  0  0  0  0
 26 25  2  0  0  0  0
 27 25  1  0  0  0  0
 29 37  1  1  0  0  0
 29 30  1  0  0  0  0
 30 31  2  0  0  0  0
 31 33  1  0  0  0  0
 31 32  1  0  0  0  0
 34 33  1  0  0  0  0
 35 34  1  0  0  0  0
 36 30  1  0  0  0  0
 36 34  2  0  0  0  0
 38 37  1  0  0  0  0
M  END
>  <POSE>
9

>  <SCORE>
-6.581

>  <RMSD_LB_BP>
2.581

>  <RMSD_UB_BP>
5.107

$$$$
