REMARK  9 active torsions:
REMARK  status: ('A' for Active; 'I' for Inactive)
REMARK    1  A    between atoms: C_3  and  C_2 
REMARK    2  A    between atoms: C_3  and  C_5 
REMARK    3  A    between atoms: C_3  and  N_4 
REMARK    4  A    between atoms: S_6  and  N_4 
REMARK    5  A    between atoms: N_4  and  C_7 
REMARK    6  A    between atoms: S_6  and  C_10 
REMARK    7  A    between atoms: C_7  and  C_18 
REMARK    8  A    between atoms: C_28  and  C_29 
REMARK    9  A    between atoms: C_33  and  S_35 
ROOT
ATOM      1  N   UNL d   1       3.002   0.355  -0.131  0.00  0.00    -0.192 NA
ENDROOT
BRANCH   1   2
ATOM      2  S   UNL d   1       1.210   0.291  -0.047  0.00  0.00     0.263 S 
ATOM      3  O   UNL d   1       0.898  -0.840   0.945  0.00  0.00    -0.204 OA
ATOM      4  O   UNL d   1       0.747  -0.349  -1.365  0.00  0.00    -0.204 OA
BRANCH   2   5
ATOM      5  C   UNL d   1       0.275   1.772   0.334  0.00  0.00     0.183 A 
ATOM      6  C   UNL d   1      -1.072   1.818   0.613  0.00  0.00     0.136 A 
ATOM      7  N   UNL d   1      -1.393   3.103   0.833  0.00  0.00    -0.353 N 
ATOM      8  C   UNL d   1      -2.708   3.638   1.161  0.00  0.00     0.156 C 
ATOM      9  C   UNL d   1      -0.255   3.808   0.687  0.00  0.00     0.210 A 
ATOM     10  N   UNL d   1       0.792   3.016   0.377  0.00  0.00    -0.229 NA
ENDBRANCH   2   5
ENDBRANCH   1   2
BRANCH   1  11
ATOM     11  C   UNL d   1       3.567   1.044   1.045  0.00  0.00     0.147 C 
BRANCH  11  12
ATOM     12  C   UNL d   1       3.263   0.278   2.322  0.00  0.00    -0.038 A 
ATOM     13  C   UNL d   1       2.563   0.800   3.441  0.00  0.00    -0.054 A 
ATOM     14  C   UNL d   1       2.015   2.206   3.530  0.00  0.00     0.049 C 
ATOM     15  C   UNL d   1       2.350  -0.022   4.565  0.00  0.00     0.019 A 
ATOM     16  C   UNL d   1       2.814  -1.358   4.628  0.00  0.00    -0.025 A 
ATOM     17  C   UNL d   1       3.509  -1.843   3.499  0.00  0.00     0.013 A 
ATOM     18  C   UNL d   1       3.726  -1.044   2.381  0.00  0.00     0.010 A 
BRANCH  16  19
ATOM     19  C   UNL d   1       2.581  -2.231   5.851  0.00  0.00    -0.025 A 
ATOM     20  C   UNL d   1       3.054  -3.568   5.908  0.00  0.00     0.012 A 
ATOM     21  C   UNL d   1       2.840  -4.368   7.033  0.00  0.00     0.002 A 
ATOM     22  C   UNL d   1       2.155  -3.867   8.134  0.00  0.00     0.023 A 
ATOM     23  C   UNL d   1       1.678  -2.558   8.118  0.00  0.00     0.059 A 
ATOM     24  C   UNL d   1       1.885  -1.750   6.991  0.00  0.00     0.035 A 
BRANCH  23  25
ATOM     25  S   UNL d   1       0.789  -1.915   9.541  0.00  0.00     0.171 S 
ATOM     26  O   UNL d   1       1.185  -0.439   9.702  0.00  0.00    -0.223 OA
ATOM     27  C   UNL d   1      -1.001  -2.037   9.806  0.00  0.00     0.167 C 
ATOM     28  O   UNL d   1       1.481  -2.469  10.797  0.00  0.00    -0.223 OA
ENDBRANCH  23  25
ENDBRANCH  16  19
ENDBRANCH  11  12
ENDBRANCH   1  11
BRANCH   1  29
ATOM     29  C   UNL d   1       3.496   0.795  -1.468  0.00  0.00     0.108 C 
BRANCH  29  30
ATOM     30  C   UNL d   1       4.995   0.533  -1.661  0.00  0.00    -0.026 A 
ATOM     31  C   UNL d   1       6.105   1.292  -1.210  0.00  0.00    -0.013 A 
ATOM     32  C   UNL d   1       6.167   2.571  -0.429  0.00  0.00     0.057 C 
ATOM     33  S   UNL d   1       7.520   0.545  -1.734  0.00  0.00    -0.100 SA
ATOM     34  C   UNL d   1       6.779  -0.722  -2.535  0.00  0.00    -0.020 A 
ATOM     35  C   UNL d   1       7.483  -1.815  -3.267  0.00  0.00     0.056 C 
ATOM     36  C   UNL d   1       5.406  -0.590  -2.412  0.00  0.00     0.024 A 
ENDBRANCH  29  30
BRANCH  29  37
ATOM     37  C   UNL d   1       3.026   2.210  -1.901  0.00  0.00     0.021 C 
ATOM     38  C   UNL d   1       3.475   2.564  -3.320  0.00  0.00     0.007 C 
ENDBRANCH  29  37
ENDBRANCH   1  29
TORSDOF 9
