REMARK  10 active torsions:
REMARK  status: ('A' for Active; 'I' for Inactive)
REMARK    1  A    between atoms: C_3  and  C_2 
REMARK    2  A    between atoms: C_3  and  C_5 
REMARK    3  A    between atoms: C_3  and  N_4 
REMARK    4  A    between atoms: S_6  and  N_4 
REMARK    5  A    between atoms: N_4  and  C_7 
REMARK    6  A    between atoms: S_6  and  C_10 
REMARK    7  A    between atoms: C_7  and  C_18 
REMARK    8  A    between atoms: C_28  and  C_29 
REMARK    9  A    between atoms: C_33  and  S_35 
REMARK   10  A    between atoms: S_35  and  C_36 
ROOT
ATOM      1  N   UNL d   1       2.689   0.104   0.457  0.00  0.00    -0.192 NA
ENDROOT
BRANCH   1   2
ATOM      2  S   UNL d   1       0.949   0.293   0.030  0.00  0.00     0.263 S 
ATOM      3  O   UNL d   1       0.572   1.772   0.169  0.00  0.00    -0.204 OA
ATOM      4  O   UNL d   1       0.143  -0.368   1.159  0.00  0.00    -0.204 OA
BRANCH   2   5
ATOM      5  C   UNL d   1       0.456  -0.316  -1.579  0.00  0.00     0.183 A 
ATOM      6  C   UNL d   1      -0.487  -1.287  -1.825  0.00  0.00     0.136 A 
ATOM      7  N   UNL d   1      -0.533  -1.472  -3.155  0.00  0.00    -0.353 N 
ATOM      8  C   UNL d   1      -1.375  -2.412  -3.883  0.00  0.00     0.156 C 
ATOM      9  C   UNL d   1       0.364  -0.620  -3.687  0.00  0.00     0.210 A 
ATOM     10  N   UNL d   1       0.992   0.108  -2.741  0.00  0.00    -0.229 NA
ENDBRANCH   2   5
ENDBRANCH   1   2
BRANCH   1  11
ATOM     11  C   UNL d   1       3.014  -1.320   0.699  0.00  0.00     0.147 C 
BRANCH  11  12
ATOM     12  C   UNL d   1       2.801  -2.148  -0.555  0.00  0.00    -0.038 A 
ATOM     13  C   UNL d   1       1.916  -3.255  -0.657  0.00  0.00    -0.054 A 
ATOM     14  C   UNL d   1       1.063  -3.780   0.476  0.00  0.00     0.049 C 
ATOM     15  C   UNL d   1       1.794  -3.925  -1.889  0.00  0.00     0.019 A 
ATOM     16  C   UNL d   1       2.523  -3.540  -3.039  0.00  0.00    -0.025 A 
ATOM     17  C   UNL d   1       3.402  -2.445  -2.898  0.00  0.00     0.013 A 
ATOM     18  C   UNL d   1       3.536  -1.771  -1.687  0.00  0.00     0.010 A 
BRANCH  16  19
ATOM     19  C   UNL d   1       2.363  -4.265  -4.366  0.00  0.00    -0.025 A 
ATOM     20  C   UNL d   1       1.459  -5.348  -4.519  0.00  0.00     0.012 A 
ATOM     21  C   UNL d   1       1.315  -6.007  -5.741  0.00  0.00     0.002 A 
ATOM     22  C   UNL d   1       2.060  -5.612  -6.847  0.00  0.00     0.023 A 
ATOM     23  C   UNL d   1       2.955  -4.550  -6.737  0.00  0.00     0.060 A 
ATOM     24  C   UNL d   1       3.108  -3.886  -5.513  0.00  0.00     0.035 A 
BRANCH  23  25
ATOM     25  S   UNL d   1       3.922  -4.042  -8.164  0.00  0.00     0.175 S 
ATOM     26  O   UNL d   1       3.981  -2.506  -8.146  0.00  0.00    -0.223 OA
ATOM     27  O   UNL d   1       3.031  -4.222  -9.404  0.00  0.00    -0.223 OA
BRANCH  25  28
ATOM     28  C   UNL d   1       5.585  -4.670  -8.564  0.00  0.00     0.141 C 
ATOM     29  C   UNL d   1       6.126  -4.023  -9.833  0.00  0.00     0.021 C 
ENDBRANCH  25  28
ENDBRANCH  23  25
ENDBRANCH  16  19
ENDBRANCH  11  12
ENDBRANCH   1  11
BRANCH   1  30
ATOM     30  C   UNL d   1       3.288   0.983   1.506  0.00  0.00     0.108 C 
BRANCH  30  31
ATOM     31  C   UNL d   1       2.695   0.774   2.898  0.00  0.00    -0.026 A 
ATOM     32  C   UNL d   1       3.352   0.135   3.969  0.00  0.00    -0.013 A 
ATOM     33  C   UNL d   1       4.714  -0.494   4.010  0.00  0.00     0.057 C 
ATOM     34  S   UNL d   1       2.342   0.140   5.314  0.00  0.00    -0.100 SA
ATOM     35  C   UNL d   1       1.074   0.950   4.581  0.00  0.00    -0.020 A 
ATOM     36  C   UNL d   1      -0.214   1.317   5.239  0.00  0.00     0.056 C 
ATOM     37  C   UNL d   1       1.414   1.232   3.268  0.00  0.00     0.024 A 
ENDBRANCH  30  31
BRANCH  30  38
ATOM     38  C   UNL d   1       3.331   2.479   1.122  0.00  0.00     0.021 C 
ATOM     39  C   UNL d   1       3.989   2.703  -0.240  0.00  0.00     0.007 C 
ENDBRANCH  30  38
ENDBRANCH   1  30
TORSDOF 10
