MODEL 1
REMARK VINA RESULT:   -11.220      0.000      0.000
REMARK INTER + INTRA:         -18.618
REMARK INTER:                 -17.722
REMARK INTRA:                  -0.895
REMARK UNBOUND:                -0.838
REMARK  10 active torsions:
REMARK  status: ('A' for Active; 'I' for Inactive)
REMARK    1  A    between atoms: C_3  and  C_2 
REMARK    2  A    between atoms: C_3  and  C_5 
REMARK    3  A    between atoms: C_3  and  N_4 
REMARK    4  A    between atoms: S_6  and  N_4 
REMARK    5  A    between atoms: N_4  and  C_7 
REMARK    6  A    between atoms: S_6  and  C_10 
REMARK    7  A    between atoms: C_7  and  C_18 
REMARK    8  A    between atoms: C_28  and  C_29 
REMARK    9  A    between atoms: C_33  and  S_35 
REMARK   10  A    between atoms: S_35  and  C_36 
ROOT
ATOM      1  N   UNL d   1      17.897  -4.200  60.374  0.00  0.00    -0.192 NA
ENDROOT
BRANCH   1   2
ATOM      2  S   UNL d   1      17.844  -5.989  60.583  0.00  0.00     0.263 S 
ATOM      3  O   UNL d   1      16.397  -6.402  60.872  0.00  0.00    -0.204 OA
ATOM      4  O   UNL d   1      18.555  -6.300  61.909  0.00  0.00    -0.204 OA
BRANCH   2   5
ATOM      5  C   UNL d   1      18.502  -6.965  59.235  0.00  0.00     0.183 A 
ATOM      6  C   UNL d   1      19.785  -6.908  58.742  0.00  0.00     0.136 A 
ATOM      7  N   UNL d   1      19.859  -7.773  57.716  0.00  0.00    -0.353 N 
ATOM      8  C   UNL d   1      21.018  -8.044  56.877  0.00  0.00     0.156 C 
ATOM      9  C   UNL d   1      18.640  -8.337  57.609  0.00  0.00     0.210 A 
ATOM     10  N   UNL d   1      17.779  -7.860  58.531  0.00  0.00    -0.229 NA
ENDBRANCH   2   5
ENDBRANCH   1   2
BRANCH   1  11
ATOM     11  C   UNL d   1      17.249  -3.805  59.103  0.00  0.00     0.147 C 
BRANCH  11  12
ATOM     12  C   UNL d   1      15.805  -3.395  59.332  0.00  0.00    -0.038 A 
ATOM     13  C   UNL d   1      15.334  -2.055  59.344  0.00  0.00    -0.054 A 
ATOM     14  C   UNL d   1      16.205  -0.836  59.142  0.00  0.00     0.049 C 
ATOM     15  C   UNL d   1      13.962  -1.812  59.545  0.00  0.00     0.019 A 
ATOM     16  C   UNL d   1      13.025  -2.855  59.739  0.00  0.00    -0.025 A 
ATOM     17  C   UNL d   1      13.531  -4.173  59.734  0.00  0.00     0.013 A 
ATOM     18  C   UNL d   1      14.885  -4.432  59.537  0.00  0.00     0.010 A 
BRANCH  16  19
ATOM     19  C   UNL d   1      11.544  -2.573  59.936  0.00  0.00    -0.025 A 
ATOM     20  C   UNL d   1      10.670  -3.539  60.498  0.00  0.00     0.012 A 
ATOM     21  C   UNL d   1       9.312  -3.272  60.678  0.00  0.00     0.002 A 
ATOM     22  C   UNL d   1       8.781  -2.040  60.309  0.00  0.00     0.023 A 
ATOM     23  C   UNL d   1       9.608  -1.065  59.758  0.00  0.00     0.060 A 
ATOM     24  C   UNL d   1      10.972  -1.327  59.570  0.00  0.00     0.035 A 
BRANCH  23  25
ATOM     25  S   UNL d   1       8.922   0.525  59.276  0.00  0.00     0.175 S 
ATOM     26  O   UNL d   1       9.505   1.577  60.233  0.00  0.00    -0.223 OA
ATOM     27  O   UNL d   1       7.464   0.556  59.763  0.00  0.00    -0.223 OA
BRANCH  25  28
ATOM     28  C   UNL d   1       8.971   1.204  57.586  0.00  0.00     0.141 C 
ATOM     29  C   UNL d   1       7.896   2.265  57.389  0.00  0.00     0.021 C 
ENDBRANCH  25  28
ENDBRANCH  23  25
ENDBRANCH  16  19
ENDBRANCH  11  12
ENDBRANCH   1  11
BRANCH   1  30
ATOM     30  C   UNL d   1      19.188  -3.475  60.573  0.00  0.00     0.108 C 
BRANCH  30  31
ATOM     31  C   UNL d   1      19.397  -2.969  61.999  0.00  0.00    -0.026 A 
ATOM     32  C   UNL d   1      18.407  -2.353  62.792  0.00  0.00    -0.013 A 
ATOM     33  C   UNL d   1      16.982  -2.029  62.452  0.00  0.00     0.057 C 
ATOM     34  S   UNL d   1      19.065  -1.972  64.292  0.00  0.00    -0.100 SA
ATOM     35  C   UNL d   1      20.592  -2.580  63.977  0.00  0.00    -0.020 A 
ATOM     36  C   UNL d   1      21.738  -2.578  64.932  0.00  0.00     0.056 C 
ATOM     37  C   UNL d   1      20.619  -3.093  62.691  0.00  0.00     0.024 A 
ENDBRANCH  30  31
BRANCH  30  38
ATOM     38  C   UNL d   1      19.453  -2.367  59.529  0.00  0.00     0.021 C 
ATOM     39  C   UNL d   1      19.430  -0.972  60.155  0.00  0.00     0.007 C 
ENDBRANCH  30  38
ENDBRANCH   1  30
TORSDOF 10
ENDMDL
MODEL 2
REMARK VINA RESULT:   -10.898      2.277      4.469
REMARK INTER + INTRA:         -18.107
REMARK INTER:                 -17.827
REMARK INTRA:                  -0.280
REMARK UNBOUND:                -0.838
REMARK  10 active torsions:
REMARK  status: ('A' for Active; 'I' for Inactive)
REMARK    1  A    between atoms: C_3  and  C_2 
REMARK    2  A    between atoms: C_3  and  C_5 
REMARK    3  A    between atoms: C_3  and  N_4 
REMARK    4  A    between atoms: S_6  and  N_4 
REMARK    5  A    between atoms: N_4  and  C_7 
REMARK    6  A    between atoms: S_6  and  C_10 
REMARK    7  A    between atoms: C_7  and  C_18 
REMARK    8  A    between atoms: C_28  and  C_29 
REMARK    9  A    between atoms: C_33  and  S_35 
REMARK   10  A    between atoms: S_35  and  C_36 
ROOT
ATOM      1  N   UNL d   1      17.464  -2.473  60.164  0.00  0.00    -0.192 NA
ENDROOT
BRANCH   1   2
ATOM      2  S   UNL d   1      18.002  -1.594  61.641  0.00  0.00     0.263 S 
ATOM      3  O   UNL d   1      16.787  -1.381  62.550  0.00  0.00    -0.204 OA
ATOM      4  O   UNL d   1      18.350  -0.163  61.201  0.00  0.00    -0.204 OA
BRANCH   2   5
ATOM      5  C   UNL d   1      19.337  -2.343  62.569  0.00  0.00     0.183 A 
ATOM      6  C   UNL d   1      19.776  -1.957  63.814  0.00  0.00     0.136 A 
ATOM      7  N   UNL d   1      20.811  -2.751  64.137  0.00  0.00    -0.353 N 
ATOM      8  C   UNL d   1      21.606  -2.706  65.357  0.00  0.00     0.156 C 
ATOM      9  C   UNL d   1      20.976  -3.597  63.102  0.00  0.00     0.210 A 
ATOM     10  N   UNL d   1      20.083  -3.372  62.117  0.00  0.00    -0.229 NA
ENDBRANCH   2   5
ENDBRANCH   1   2
BRANCH   1  11
ATOM     11  C   UNL d   1      16.723  -3.702  60.530  0.00  0.00     0.147 C 
BRANCH  11  12
ATOM     12  C   UNL d   1      15.230  -3.517  60.329  0.00  0.00    -0.038 A 
ATOM     13  C   UNL d   1      14.234  -4.437  60.754  0.00  0.00    -0.054 A 
ATOM     14  C   UNL d   1      14.516  -5.744  61.460  0.00  0.00     0.049 C 
ATOM     15  C   UNL d   1      12.878  -4.134  60.527  0.00  0.00     0.019 A 
ATOM     16  C   UNL d   1      12.463  -2.943  59.885  0.00  0.00    -0.025 A 
ATOM     17  C   UNL d   1      13.479  -2.059  59.465  0.00  0.00     0.013 A 
ATOM     18  C   UNL d   1      14.825  -2.343  59.681  0.00  0.00     0.010 A 
BRANCH  16  19
ATOM     19  C   UNL d   1      10.992  -2.625  59.665  0.00  0.00    -0.025 A 
ATOM     20  C   UNL d   1      10.007  -3.645  59.630  0.00  0.00     0.012 A 
ATOM     21  C   UNL d   1       8.658  -3.346  59.431  0.00  0.00     0.002 A 
ATOM     22  C   UNL d   1       8.246  -2.028  59.263  0.00  0.00     0.023 A 
ATOM     23  C   UNL d   1       9.183  -0.999  59.296  0.00  0.00     0.060 A 
ATOM     24  C   UNL d   1      10.539  -1.291  59.491  0.00  0.00     0.035 A 
BRANCH  23  25
ATOM     25  S   UNL d   1       8.653   0.704  59.074  0.00  0.00     0.175 S 
ATOM     26  O   UNL d   1       9.389   1.547  60.126  0.00  0.00    -0.223 OA
ATOM     27  O   UNL d   1       7.230   0.814  59.647  0.00  0.00    -0.223 OA
BRANCH  25  28
ATOM     28  C   UNL d   1       8.698   1.604  57.490  0.00  0.00     0.141 C 
ATOM     29  C   UNL d   1       7.570   2.624  57.405  0.00  0.00     0.021 C 
ENDBRANCH  25  28
ENDBRANCH  23  25
ENDBRANCH  16  19
ENDBRANCH  11  12
ENDBRANCH   1  11
BRANCH   1  30
ATOM     30  C   UNL d   1      18.444  -2.737  59.068  0.00  0.00     0.108 C 
BRANCH  30  31
ATOM     31  C   UNL d   1      18.698  -4.222  58.812  0.00  0.00    -0.026 A 
ATOM     32  C   UNL d   1      18.900  -4.800  57.543  0.00  0.00    -0.013 A 
ATOM     33  C   UNL d   1      18.891  -4.152  56.189  0.00  0.00     0.057 C 
ATOM     34  S   UNL d   1      19.159  -6.452  57.727  0.00  0.00    -0.100 SA
ATOM     35  C   UNL d   1      19.033  -6.466  59.396  0.00  0.00    -0.020 A 
ATOM     36  C   UNL d   1      19.174  -7.671  60.264  0.00  0.00     0.056 C 
ATOM     37  C   UNL d   1      18.785  -5.179  59.843  0.00  0.00     0.024 A 
ENDBRANCH  30  31
BRANCH  30  38
ATOM     38  C   UNL d   1      19.765  -1.946  59.202  0.00  0.00     0.021 C 
ATOM     39  C   UNL d   1      19.851  -0.799  58.195  0.00  0.00     0.007 C 
ENDBRANCH  30  38
ENDBRANCH   1  30
TORSDOF 10
ENDMDL
MODEL 3
REMARK VINA RESULT:   -10.353      2.217      5.285
REMARK INTER + INTRA:         -17.244
REMARK INTER:                 -15.489
REMARK INTRA:                  -1.755
REMARK UNBOUND:                -0.838
REMARK  10 active torsions:
REMARK  status: ('A' for Active; 'I' for Inactive)
REMARK    1  A    between atoms: C_3  and  C_2 
REMARK    2  A    between atoms: C_3  and  C_5 
REMARK    3  A    between atoms: C_3  and  N_4 
REMARK    4  A    between atoms: S_6  and  N_4 
REMARK    5  A    between atoms: N_4  and  C_7 
REMARK    6  A    between atoms: S_6  and  C_10 
REMARK    7  A    between atoms: C_7  and  C_18 
REMARK    8  A    between atoms: C_28  and  C_29 
REMARK    9  A    between atoms: C_33  and  S_35 
REMARK   10  A    between atoms: S_35  and  C_36 
ROOT
ATOM      1  N   UNL d   1      18.549  -6.322  59.674  0.00  0.00    -0.192 NA
ENDROOT
BRANCH   1   2
ATOM      2  S   UNL d   1      18.799  -5.475  61.243  0.00  0.00     0.263 S 
ATOM      3  O   UNL d   1      20.275  -5.600  61.635  0.00  0.00    -0.204 OA
ATOM      4  O   UNL d   1      18.092  -6.317  62.317  0.00  0.00    -0.204 OA
BRANCH   2   5
ATOM      5  C   UNL d   1      18.291  -3.760  61.309  0.00  0.00     0.183 A 
ATOM      6  C   UNL d   1      18.866  -2.717  60.620  0.00  0.00     0.136 A 
ATOM      7  N   UNL d   1      18.213  -1.597  60.972  0.00  0.00    -0.353 N 
ATOM      8  C   UNL d   1      18.479  -0.241  60.509  0.00  0.00     0.156 C 
ATOM      9  C   UNL d   1      17.263  -1.972  61.849  0.00  0.00     0.210 A 
ATOM     10  N   UNL d   1      17.284  -3.301  62.079  0.00  0.00    -0.229 NA
ENDBRANCH   2   5
ENDBRANCH   1   2
BRANCH   1  11
ATOM     11  C   UNL d   1      17.143  -6.766  59.539  0.00  0.00     0.147 C 
BRANCH  11  12
ATOM     12  C   UNL d   1      16.200  -5.579  59.490  0.00  0.00    -0.038 A 
ATOM     13  C   UNL d   1      16.346  -4.460  58.625  0.00  0.00    -0.054 A 
ATOM     14  C   UNL d   1      17.473  -4.283  57.633  0.00  0.00     0.049 C 
ATOM     15  C   UNL d   1      15.384  -3.433  58.663  0.00  0.00     0.019 A 
ATOM     16  C   UNL d   1      14.269  -3.468  59.535  0.00  0.00    -0.025 A 
ATOM     17  C   UNL d   1      14.163  -4.587  60.388  0.00  0.00     0.013 A 
ATOM     18  C   UNL d   1      15.105  -5.611  60.365  0.00  0.00     0.010 A 
BRANCH  16  19
ATOM     19  C   UNL d   1      13.231  -2.357  59.547  0.00  0.00    -0.025 A 
ATOM     20  C   UNL d   1      13.582  -1.005  59.297  0.00  0.00     0.012 A 
ATOM     21  C   UNL d   1      12.623   0.009  59.308  0.00  0.00     0.002 A 
ATOM     22  C   UNL d   1      11.288  -0.286  59.564  0.00  0.00     0.023 A 
ATOM     23  C   UNL d   1      10.904  -1.602  59.809  0.00  0.00     0.060 A 
ATOM     24  C   UNL d   1      11.861  -2.625  59.805  0.00  0.00     0.035 A 
BRANCH  23  25
ATOM     25  S   UNL d   1       9.180  -1.984  60.145  0.00  0.00     0.175 S 
ATOM     26  O   UNL d   1       9.160  -3.018  61.282  0.00  0.00    -0.223 OA
ATOM     27  O   UNL d   1       8.684  -2.888  59.005  0.00  0.00    -0.223 OA
BRANCH  25  28
ATOM     28  C   UNL d   1       7.892  -0.741  60.485  0.00  0.00     0.141 C 
ATOM     29  C   UNL d   1       7.846   0.316  59.389  0.00  0.00     0.021 C 
ENDBRANCH  25  28
ENDBRANCH  23  25
ENDBRANCH  16  19
ENDBRANCH  11  12
ENDBRANCH   1  11
BRANCH   1  30
ATOM     30  C   UNL d   1      19.500  -7.398  59.260  0.00  0.00     0.108 C 
BRANCH  30  31
ATOM     31  C   UNL d   1      20.025  -7.243  57.834  0.00  0.00    -0.026 A 
ATOM     32  C   UNL d   1      19.265  -7.454  56.666  0.00  0.00    -0.013 A 
ATOM     33  C   UNL d   1      17.835  -7.887  56.527  0.00  0.00     0.057 C 
ATOM     34  S   UNL d   1      20.231  -7.157  55.322  0.00  0.00    -0.100 SA
ATOM     35  C   UNL d   1      21.609  -6.750  56.180  0.00  0.00    -0.020 A 
ATOM     36  C   UNL d   1      22.915  -6.347  55.580  0.00  0.00     0.056 C 
ATOM     37  C   UNL d   1      21.342  -6.840  57.536  0.00  0.00     0.024 A 
ENDBRANCH  30  31
BRANCH  30  38
ATOM     38  C   UNL d   1      18.982  -8.830  59.526  0.00  0.00     0.021 C 
ATOM     39  C   UNL d   1      19.549  -9.414  60.820  0.00  0.00     0.007 C 
ENDBRANCH  30  38
ENDBRANCH   1  30
TORSDOF 10
ENDMDL
MODEL 4
REMARK VINA RESULT:    -9.963      2.380      4.483
REMARK INTER + INTRA:         -16.625
REMARK INTER:                 -16.838
REMARK INTRA:                   0.213
REMARK UNBOUND:                -0.838
REMARK  10 active torsions:
REMARK  status: ('A' for Active; 'I' for Inactive)
REMARK    1  A    between atoms: C_3  and  C_2 
REMARK    2  A    between atoms: C_3  and  C_5 
REMARK    3  A    between atoms: C_3  and  N_4 
REMARK    4  A    between atoms: S_6  and  N_4 
REMARK    5  A    between atoms: N_4  and  C_7 
REMARK    6  A    between atoms: S_6  and  C_10 
REMARK    7  A    between atoms: C_7  and  C_18 
REMARK    8  A    between atoms: C_28  and  C_29 
REMARK    9  A    between atoms: C_33  and  S_35 
REMARK   10  A    between atoms: S_35  and  C_36 
ROOT
ATOM      1  N   UNL d   1      17.320  -2.841  59.415  0.00  0.00    -0.192 NA
ENDROOT
BRANCH   1   2
ATOM      2  S   UNL d   1      18.400  -1.584  60.121  0.00  0.00     0.263 S 
ATOM      3  O   UNL d   1      17.660  -0.242  60.105  0.00  0.00    -0.204 OA
ATOM      4  O   UNL d   1      19.534  -1.356  59.109  0.00  0.00    -0.204 OA
BRANCH   2   5
ATOM      5  C   UNL d   1      19.034  -1.913  61.762  0.00  0.00     0.183 A 
ATOM      6  C   UNL d   1      20.208  -2.565  62.063  0.00  0.00     0.136 A 
ATOM      7  N   UNL d   1      20.297  -2.632  63.402  0.00  0.00    -0.353 N 
ATOM      8  C   UNL d   1      21.362  -3.247  64.182  0.00  0.00     0.156 C 
ATOM      9  C   UNL d   1      19.196  -2.025  63.885  0.00  0.00     0.210 A 
ATOM     10  N   UNL d   1      18.396  -1.570  62.899  0.00  0.00    -0.229 NA
ENDBRANCH   2   5
ENDBRANCH   1   2
BRANCH   1  11
ATOM     11  C   UNL d   1      16.541  -3.515  60.478  0.00  0.00     0.147 C 
BRANCH  11  12
ATOM     12  C   UNL d   1      15.050  -3.326  60.264  0.00  0.00    -0.038 A 
ATOM     13  C   UNL d   1      14.053  -4.275  60.614  0.00  0.00    -0.054 A 
ATOM     14  C   UNL d   1      14.331  -5.622  61.242  0.00  0.00     0.049 C 
ATOM     15  C   UNL d   1      12.699  -3.966  60.383  0.00  0.00     0.019 A 
ATOM     16  C   UNL d   1      12.287  -2.739  59.810  0.00  0.00    -0.025 A 
ATOM     17  C   UNL d   1      13.306  -1.826  59.462  0.00  0.00     0.013 A 
ATOM     18  C   UNL d   1      14.649  -2.116  59.683  0.00  0.00     0.010 A 
BRANCH  16  19
ATOM     19  C   UNL d   1      10.819  -2.415  59.585  0.00  0.00    -0.025 A 
ATOM     20  C   UNL d   1       9.823  -3.426  59.598  0.00  0.00     0.012 A 
ATOM     21  C   UNL d   1       8.476  -3.121  59.395  0.00  0.00     0.002 A 
ATOM     22  C   UNL d   1       8.076  -1.808  59.173  0.00  0.00     0.023 A 
ATOM     23  C   UNL d   1       9.024  -0.787  59.157  0.00  0.00     0.060 A 
ATOM     24  C   UNL d   1      10.379  -1.086  59.357  0.00  0.00     0.035 A 
BRANCH  23  25
ATOM     25  S   UNL d   1       8.510   0.909  58.865  0.00  0.00     0.175 S 
ATOM     26  O   UNL d   1       9.208   1.781  59.922  0.00  0.00    -0.223 OA
ATOM     27  O   UNL d   1       7.066   1.041  59.379  0.00  0.00    -0.223 OA
BRANCH  25  28
ATOM     28  C   UNL d   1       8.621   1.764  57.260  0.00  0.00     0.141 C 
ATOM     29  C   UNL d   1       7.346   2.544  56.963  0.00  0.00     0.021 C 
ENDBRANCH  25  28
ENDBRANCH  23  25
ENDBRANCH  16  19
ENDBRANCH  11  12
ENDBRANCH   1  11
BRANCH   1  30
ATOM     30  C   UNL d   1      17.879  -3.828  58.443  0.00  0.00     0.108 C 
BRANCH  30  31
ATOM     31  C   UNL d   1      18.143  -5.206  59.047  0.00  0.00    -0.026 A 
ATOM     32  C   UNL d   1      18.080  -6.424  58.340  0.00  0.00    -0.013 A 
ATOM     33  C   UNL d   1      17.730  -6.672  56.902  0.00  0.00     0.057 C 
ATOM     34  S   UNL d   1      18.457  -7.686  59.386  0.00  0.00    -0.100 SA
ATOM     35  C   UNL d   1      18.716  -6.728  60.734  0.00  0.00    -0.020 A 
ATOM     36  C   UNL d   1      19.112  -7.224  62.085  0.00  0.00     0.056 C 
ATOM     37  C   UNL d   1      18.511  -5.401  60.394  0.00  0.00     0.024 A 
ENDBRANCH  30  31
BRANCH  30  38
ATOM     38  C   UNL d   1      19.100  -3.308  57.651  0.00  0.00     0.021 C 
ATOM     39  C   UNL d   1      19.184  -3.927  56.255  0.00  0.00     0.007 C 
ENDBRANCH  30  38
ENDBRANCH   1  30
TORSDOF 10
ENDMDL
MODEL 5
REMARK VINA RESULT:    -9.598      1.771      4.674
REMARK INTER + INTRA:         -16.047
REMARK INTER:                 -16.289
REMARK INTRA:                   0.242
REMARK UNBOUND:                -0.838
REMARK  10 active torsions:
REMARK  status: ('A' for Active; 'I' for Inactive)
REMARK    1  A    between atoms: C_3  and  C_2 
REMARK    2  A    between atoms: C_3  and  C_5 
REMARK    3  A    between atoms: C_3  and  N_4 
REMARK    4  A    between atoms: S_6  and  N_4 
REMARK    5  A    between atoms: N_4  and  C_7 
REMARK    6  A    between atoms: S_6  and  C_10 
REMARK    7  A    between atoms: C_7  and  C_18 
REMARK    8  A    between atoms: C_28  and  C_29 
REMARK    9  A    between atoms: C_33  and  S_35 
REMARK   10  A    between atoms: S_35  and  C_36 
ROOT
ATOM      1  N   UNL d   1      17.651  -4.619  59.674  0.00  0.00    -0.192 NA
ENDROOT
BRANCH   1   2
ATOM      2  S   UNL d   1      18.837  -5.029  60.967  0.00  0.00     0.263 S 
ATOM      3  O   UNL d   1      20.128  -5.522  60.304  0.00  0.00    -0.204 OA
ATOM      4  O   UNL d   1      18.311  -6.293  61.664  0.00  0.00    -0.204 OA
BRANCH   2   5
ATOM      5  C   UNL d   1      19.209  -3.731  62.142  0.00  0.00     0.183 A 
ATOM      6  C   UNL d   1      20.350  -3.628  62.903  0.00  0.00     0.136 A 
ATOM      7  N   UNL d   1      20.220  -2.535  63.673  0.00  0.00    -0.353 N 
ATOM      8  C   UNL d   1      21.174  -2.031  64.653  0.00  0.00     0.156 C 
ATOM      9  C   UNL d   1      19.024  -1.997  63.368  0.00  0.00     0.210 A 
ATOM     10  N   UNL d   1      18.374  -2.711  62.427  0.00  0.00    -0.229 NA
ENDBRANCH   2   5
ENDBRANCH   1   2
BRANCH   1  11
ATOM     11  C   UNL d   1      16.580  -5.639  59.608  0.00  0.00     0.147 C 
BRANCH  11  12
ATOM     12  C   UNL d   1      15.215  -5.009  59.816  0.00  0.00    -0.038 A 
ATOM     13  C   UNL d   1      14.409  -5.178  60.974  0.00  0.00    -0.054 A 
ATOM     14  C   UNL d   1      14.790  -6.023  62.169  0.00  0.00     0.049 C 
ATOM     15  C   UNL d   1      13.169  -4.517  61.050  0.00  0.00     0.019 A 
ATOM     16  C   UNL d   1      12.686  -3.685  60.012  0.00  0.00    -0.025 A 
ATOM     17  C   UNL d   1      13.506  -3.550  58.872  0.00  0.00     0.013 A 
ATOM     18  C   UNL d   1      14.735  -4.198  58.779  0.00  0.00     0.010 A 
BRANCH  16  19
ATOM     19  C   UNL d   1      11.352  -2.964  60.122  0.00  0.00    -0.025 A 
ATOM     20  C   UNL d   1      10.203  -3.600  60.661  0.00  0.00     0.012 A 
ATOM     21  C   UNL d   1       8.982  -2.931  60.761  0.00  0.00     0.002 A 
ATOM     22  C   UNL d   1       8.863  -1.614  60.333  0.00  0.00     0.023 A 
ATOM     23  C   UNL d   1       9.969  -0.954  59.801  0.00  0.00     0.060 A 
ATOM     24  C   UNL d   1      11.197  -1.620  59.694  0.00  0.00     0.035 A 
BRANCH  23  25
ATOM     25  S   UNL d   1       9.815   0.747  59.243  0.00  0.00     0.175 S 
ATOM     26  O   UNL d   1      11.016   1.032  58.326  0.00  0.00    -0.223 OA
ATOM     27  O   UNL d   1      10.209   1.650  60.423  0.00  0.00    -0.223 OA
BRANCH  25  28
ATOM     28  C   UNL d   1       8.326   1.449  58.463  0.00  0.00     0.141 C 
ATOM     29  C   UNL d   1       8.606   1.874  57.026  0.00  0.00     0.021 C 
ENDBRANCH  25  28
ENDBRANCH  23  25
ENDBRANCH  16  19
ENDBRANCH  11  12
ENDBRANCH   1  11
BRANCH   1  30
ATOM     30  C   UNL d   1      18.145  -4.263  58.310  0.00  0.00     0.108 C 
BRANCH  30  31
ATOM     31  C   UNL d   1      19.013  -5.343  57.667  0.00  0.00    -0.026 A 
ATOM     32  C   UNL d   1      18.642  -6.694  57.514  0.00  0.00    -0.013 A 
ATOM     33  C   UNL d   1      17.382  -7.389  57.942  0.00  0.00     0.057 C 
ATOM     34  S   UNL d   1      19.887  -7.522  56.743  0.00  0.00    -0.100 SA
ATOM     35  C   UNL d   1      20.903  -6.202  56.580  0.00  0.00    -0.020 A 
ATOM     36  C   UNL d   1      22.251  -6.222  55.940  0.00  0.00     0.056 C 
ATOM     37  C   UNL d   1      20.290  -5.086  57.126  0.00  0.00     0.024 A 
ENDBRANCH  30  31
BRANCH  30  38
ATOM     38  C   UNL d   1      18.810  -2.871  58.226  0.00  0.00     0.021 C 
ATOM     39  C   UNL d   1      17.960  -1.789  58.894  0.00  0.00     0.007 C 
ENDBRANCH  30  38
ENDBRANCH   1  30
TORSDOF 10
ENDMDL
MODEL 6
REMARK VINA RESULT:    -9.347      2.315      5.031
REMARK INTER + INTRA:         -15.649
REMARK INTER:                 -15.573
REMARK INTRA:                  -0.075
REMARK UNBOUND:                -0.838
REMARK  10 active torsions:
REMARK  status: ('A' for Active; 'I' for Inactive)
REMARK    1  A    between atoms: C_3  and  C_2 
REMARK    2  A    between atoms: C_3  and  C_5 
REMARK    3  A    between atoms: C_3  and  N_4 
REMARK    4  A    between atoms: S_6  and  N_4 
REMARK    5  A    between atoms: N_4  and  C_7 
REMARK    6  A    between atoms: S_6  and  C_10 
REMARK    7  A    between atoms: C_7  and  C_18 
REMARK    8  A    between atoms: C_28  and  C_29 
REMARK    9  A    between atoms: C_33  and  S_35 
REMARK   10  A    between atoms: S_35  and  C_36 
ROOT
ATOM      1  N   UNL d   1      17.912  -3.792  60.351  0.00  0.00    -0.192 NA
ENDROOT
BRANCH   1   2
ATOM      2  S   UNL d   1      18.572  -2.204  60.887  0.00  0.00     0.263 S 
ATOM      3  O   UNL d   1      17.499  -1.132  60.665  0.00  0.00    -0.204 OA
ATOM      4  O   UNL d   1      19.656  -1.811  59.872  0.00  0.00    -0.204 OA
BRANCH   2   5
ATOM      5  C   UNL d   1      19.179  -2.123  62.569  0.00  0.00     0.183 A 
ATOM      6  C   UNL d   1      20.373  -2.632  63.026  0.00  0.00     0.136 A 
ATOM      7  N   UNL d   1      20.431  -2.391  64.346  0.00  0.00    -0.353 N 
ATOM      8  C   UNL d   1      21.503  -2.761  65.260  0.00  0.00     0.156 C 
ATOM      9  C   UNL d   1      19.293  -1.746  64.664  0.00  0.00     0.210 A 
ATOM     10  N   UNL d   1      18.498  -1.565  63.589  0.00  0.00    -0.229 NA
ENDBRANCH   2   5
ENDBRANCH   1   2
BRANCH   1  11
ATOM     11  C   UNL d   1      16.973  -4.333  61.360  0.00  0.00     0.147 C 
BRANCH  11  12
ATOM     12  C   UNL d   1      15.535  -4.022  60.987  0.00  0.00    -0.038 A 
ATOM     13  C   UNL d   1      14.436  -4.902  61.183  0.00  0.00    -0.054 A 
ATOM     14  C   UNL d   1      14.541  -6.287  61.782  0.00  0.00     0.049 C 
ATOM     15  C   UNL d   1      13.145  -4.481  60.813  0.00  0.00     0.019 A 
ATOM     16  C   UNL d   1      12.893  -3.208  60.249  0.00  0.00    -0.025 A 
ATOM     17  C   UNL d   1      14.009  -2.365  60.057  0.00  0.00     0.013 A 
ATOM     18  C   UNL d   1      15.293  -2.766  60.415  0.00  0.00     0.010 A 
BRANCH  16  19
ATOM     19  C   UNL d   1      11.488  -2.764  59.874  0.00  0.00    -0.025 A 
ATOM     20  C   UNL d   1      10.436  -3.698  59.689  0.00  0.00     0.012 A 
ATOM     21  C   UNL d   1       9.148  -3.283  59.347  0.00  0.00     0.002 A 
ATOM     22  C   UNL d   1       8.863  -1.932  59.181  0.00  0.00     0.023 A 
ATOM     23  C   UNL d   1       9.869  -0.985  59.359  0.00  0.00     0.060 A 
ATOM     24  C   UNL d   1      11.165  -1.393  59.697  0.00  0.00     0.035 A 
BRANCH  23  25
ATOM     25  S   UNL d   1       9.504   0.761  59.139  0.00  0.00     0.175 S 
ATOM     26  O   UNL d   1      10.500   1.304  58.102  0.00  0.00    -0.223 OA
ATOM     27  O   UNL d   1      10.040   1.497  60.378  0.00  0.00    -0.223 OA
BRANCH  25  28
ATOM     28  C   UNL d   1       7.855   1.433  58.750  0.00  0.00     0.141 C 
ATOM     29  C   UNL d   1       7.898   2.304  57.501  0.00  0.00     0.021 C 
ENDBRANCH  25  28
ENDBRANCH  23  25
ENDBRANCH  16  19
ENDBRANCH  11  12
ENDBRANCH   1  11
BRANCH   1  30
ATOM     30  C   UNL d   1      18.847  -4.848  59.859  0.00  0.00     0.108 C 
BRANCH  30  31
ATOM     31  C   UNL d   1      19.029  -4.854  58.343  0.00  0.00    -0.026 A 
ATOM     32  C   UNL d   1      18.393  -3.968  57.449  0.00  0.00    -0.013 A 
ATOM     33  C   UNL d   1      17.408  -2.872  57.736  0.00  0.00     0.057 C 
ATOM     34  S   UNL d   1      18.892  -4.318  55.882  0.00  0.00    -0.100 SA
ATOM     35  C   UNL d   1      19.917  -5.574  56.298  0.00  0.00    -0.020 A 
ATOM     36  C   UNL d   1      20.737  -6.375  55.342  0.00  0.00     0.056 C 
ATOM     37  C   UNL d   1      19.890  -5.746  57.672  0.00  0.00     0.024 A 
ENDBRANCH  30  31
BRANCH  30  38
ATOM     38  C   UNL d   1      18.540  -6.262  60.403  0.00  0.00     0.021 C 
ATOM     39  C   UNL d   1      17.667  -7.069  59.442  0.00  0.00     0.007 C 
ENDBRANCH  30  38
ENDBRANCH   1  30
TORSDOF 10
ENDMDL
MODEL 7
REMARK VINA RESULT:    -9.317      1.891      2.493
REMARK INTER + INTRA:         -15.601
REMARK INTER:                 -16.084
REMARK INTRA:                   0.483
REMARK UNBOUND:                -0.838
REMARK  10 active torsions:
REMARK  status: ('A' for Active; 'I' for Inactive)
REMARK    1  A    between atoms: C_3  and  C_2 
REMARK    2  A    between atoms: C_3  and  C_5 
REMARK    3  A    between atoms: C_3  and  N_4 
REMARK    4  A    between atoms: S_6  and  N_4 
REMARK    5  A    between atoms: N_4  and  C_7 
REMARK    6  A    between atoms: S_6  and  C_10 
REMARK    7  A    between atoms: C_7  and  C_18 
REMARK    8  A    between atoms: C_28  and  C_29 
REMARK    9  A    between atoms: C_33  and  S_35 
REMARK   10  A    between atoms: S_35  and  C_36 
ROOT
ATOM      1  N   UNL d   1      17.541  -3.793  59.749  0.00  0.00    -0.192 NA
ENDROOT
BRANCH   1   2
ATOM      2  S   UNL d   1      18.550  -3.451  58.296  0.00  0.00     0.263 S 
ATOM      3  O   UNL d   1      19.849  -2.778  58.753  0.00  0.00    -0.204 OA
ATOM      4  O   UNL d   1      17.842  -2.328  57.522  0.00  0.00    -0.204 OA
BRANCH   2   5
ATOM      5  C   UNL d   1      18.922  -4.848  57.241  0.00  0.00     0.183 A 
ATOM      6  C   UNL d   1      20.166  -5.201  56.771  0.00  0.00     0.136 A 
ATOM      7  N   UNL d   1      20.006  -6.284  55.992  0.00  0.00    -0.353 N 
ATOM      8  C   UNL d   1      21.044  -7.005  55.266  0.00  0.00     0.156 C 
ATOM      9  C   UNL d   1      18.690  -6.569  56.005  0.00  0.00     0.210 A 
ATOM     10  N   UNL d   1      17.993  -5.702  56.767  0.00  0.00    -0.229 NA
ENDBRANCH   2   5
ENDBRANCH   1   2
BRANCH   1  11
ATOM     11  C   UNL d   1      16.940  -2.545  60.271  0.00  0.00     0.147 C 
BRANCH  11  12
ATOM     12  C   UNL d   1      15.432  -2.551  60.094  0.00  0.00    -0.038 A 
ATOM     13  C   UNL d   1      14.576  -3.626  60.456  0.00  0.00    -0.054 A 
ATOM     14  C   UNL d   1      15.043  -4.930  61.062  0.00  0.00     0.049 C 
ATOM     15  C   UNL d   1      13.188  -3.493  60.259  0.00  0.00     0.019 A 
ATOM     16  C   UNL d   1      12.606  -2.326  59.710  0.00  0.00    -0.025 A 
ATOM     17  C   UNL d   1      13.488  -1.285  59.350  0.00  0.00     0.013 A 
ATOM     18  C   UNL d   1      14.863  -1.398  59.536  0.00  0.00     0.010 A 
BRANCH  16  19
ATOM     19  C   UNL d   1      11.103  -2.196  59.523  0.00  0.00    -0.025 A 
ATOM     20  C   UNL d   1      10.251  -3.331  59.521  0.00  0.00     0.012 A 
ATOM     21  C   UNL d   1       8.871  -3.203  59.352  0.00  0.00     0.002 A 
ATOM     22  C   UNL d   1       8.295  -1.949  59.182  0.00  0.00     0.023 A 
ATOM     23  C   UNL d   1       9.098  -0.810  59.183  0.00  0.00     0.060 A 
ATOM     24  C   UNL d   1      10.484  -0.930  59.348  0.00  0.00     0.035 A 
BRANCH  23  25
ATOM     25  S   UNL d   1       8.355   0.811  58.959  0.00  0.00     0.175 S 
ATOM     26  O   UNL d   1       8.962   1.737  60.026  0.00  0.00    -0.223 OA
ATOM     27  O   UNL d   1       6.922   0.734  59.510  0.00  0.00    -0.223 OA
BRANCH  25  28
ATOM     28  C   UNL d   1       8.308   1.718  57.379  0.00  0.00     0.141 C 
ATOM     29  C   UNL d   1       7.130   2.683  57.336  0.00  0.00     0.021 C 
ENDBRANCH  25  28
ENDBRANCH  23  25
ENDBRANCH  16  19
ENDBRANCH  11  12
ENDBRANCH   1  11
BRANCH   1  30
ATOM     30  C   UNL d   1      18.103  -4.628  60.853  0.00  0.00     0.108 C 
BRANCH  30  31
ATOM     31  C   UNL d   1      18.956  -3.843  61.847  0.00  0.00    -0.026 A 
ATOM     32  C   UNL d   1      18.461  -2.893  62.763  0.00  0.00    -0.013 A 
ATOM     33  C   UNL d   1      17.054  -2.413  62.968  0.00  0.00     0.057 C 
ATOM     34  S   UNL d   1      19.741  -2.288  63.672  0.00  0.00    -0.100 SA
ATOM     35  C   UNL d   1      20.929  -3.212  62.941  0.00  0.00    -0.020 A 
ATOM     36  C   UNL d   1      22.381  -3.185  63.287  0.00  0.00     0.056 C 
ATOM     37  C   UNL d   1      20.350  -4.013  61.971  0.00  0.00     0.024 A 
ENDBRANCH  30  31
BRANCH  30  38
ATOM     38  C   UNL d   1      18.821  -5.908  60.369  0.00  0.00     0.021 C 
ATOM     39  C   UNL d   1      17.840  -7.049  60.099  0.00  0.00     0.007 C 
ENDBRANCH  30  38
ENDBRANCH   1  30
TORSDOF 10
ENDMDL
MODEL 8
REMARK VINA RESULT:    -8.902      1.870      2.715
REMARK INTER + INTRA:         -14.944
REMARK INTER:                 -14.106
REMARK INTRA:                  -0.838
REMARK UNBOUND:                -0.838
REMARK  10 active torsions:
REMARK  status: ('A' for Active; 'I' for Inactive)
REMARK    1  A    between atoms: C_3  and  C_2 
REMARK    2  A    between atoms: C_3  and  C_5 
REMARK    3  A    between atoms: C_3  and  N_4 
REMARK    4  A    between atoms: S_6  and  N_4 
REMARK    5  A    between atoms: N_4  and  C_7 
REMARK    6  A    between atoms: S_6  and  C_10 
REMARK    7  A    between atoms: C_7  and  C_18 
REMARK    8  A    between atoms: C_28  and  C_29 
REMARK    9  A    between atoms: C_33  and  S_35 
REMARK   10  A    between atoms: S_35  and  C_36 
ROOT
ATOM      1  N   UNL d   1      17.583  -6.034  58.836  0.00  0.00    -0.192 NA
ENDROOT
BRANCH   1   2
ATOM      2  S   UNL d   1      18.114  -6.823  57.306  0.00  0.00     0.263 S 
ATOM      3  O   UNL d   1      17.407  -6.135  56.133  0.00  0.00    -0.204 OA
ATOM      4  O   UNL d   1      17.495  -8.229  57.296  0.00  0.00    -0.204 OA
BRANCH   2   5
ATOM      5  C   UNL d   1      19.879  -6.875  57.011  0.00  0.00     0.183 A 
ATOM      6  C   UNL d   1      20.677  -5.807  56.676  0.00  0.00     0.136 A 
ATOM      7  N   UNL d   1      21.926  -6.276  56.513  0.00  0.00    -0.353 N 
ATOM      8  C   UNL d   1      23.109  -5.513  56.140  0.00  0.00     0.156 C 
ATOM      9  C   UNL d   1      21.867  -7.599  56.754  0.00  0.00     0.210 A 
ATOM     10  N   UNL d   1      20.618  -8.002  57.064  0.00  0.00    -0.229 NA
ENDBRANCH   2   5
ENDBRANCH   1   2
BRANCH   1  11
ATOM     11  C   UNL d   1      17.520  -4.564  58.669  0.00  0.00     0.147 C 
BRANCH  11  12
ATOM     12  C   UNL d   1      16.143  -4.035  59.025  0.00  0.00    -0.038 A 
ATOM     13  C   UNL d   1      15.850  -2.680  59.339  0.00  0.00    -0.054 A 
ATOM     14  C   UNL d   1      16.872  -1.566  59.376  0.00  0.00     0.049 C 
ATOM     15  C   UNL d   1      14.521  -2.315  59.629  0.00  0.00     0.019 A 
ATOM     16  C   UNL d   1      13.458  -3.248  59.623  0.00  0.00    -0.025 A 
ATOM     17  C   UNL d   1      13.787  -4.586  59.320  0.00  0.00     0.013 A 
ATOM     18  C   UNL d   1      15.095  -4.966  59.031  0.00  0.00     0.010 A 
BRANCH  16  19
ATOM     19  C   UNL d   1      12.027  -2.830  59.921  0.00  0.00    -0.025 A 
ATOM     20  C   UNL d   1      11.104  -3.715  60.536  0.00  0.00     0.012 A 
ATOM     21  C   UNL d   1       9.793  -3.324  60.809  0.00  0.00     0.002 A 
ATOM     22  C   UNL d   1       9.357  -2.044  60.484  0.00  0.00     0.023 A 
ATOM     23  C   UNL d   1      10.235  -1.144  59.883  0.00  0.00     0.060 A 
ATOM     24  C   UNL d   1      11.551  -1.531  59.602  0.00  0.00     0.035 A 
BRANCH  23  25
ATOM     25  S   UNL d   1       9.671   0.508  59.457  0.00  0.00     0.175 S 
ATOM     26  O   UNL d   1      10.579   1.018  58.326  0.00  0.00    -0.223 OA
ATOM     27  O   UNL d   1      10.147   1.452  60.574  0.00  0.00    -0.223 OA
BRANCH  25  28
ATOM     28  C   UNL d   1       7.950   0.941  59.044  0.00  0.00     0.141 C 
ATOM     29  C   UNL d   1       7.898   2.045  57.995  0.00  0.00     0.021 C 
ENDBRANCH  25  28
ENDBRANCH  23  25
ENDBRANCH  16  19
ENDBRANCH  11  12
ENDBRANCH   1  11
BRANCH   1  30
ATOM     30  C   UNL d   1      18.244  -6.406  60.123  0.00  0.00     0.108 C 
BRANCH  30  31
ATOM     31  C   UNL d   1      18.428  -5.233  61.083  0.00  0.00    -0.026 A 
ATOM     32  C   UNL d   1      17.445  -4.754  61.973  0.00  0.00    -0.013 A 
ATOM     33  C   UNL d   1      16.035  -5.227  62.176  0.00  0.00     0.057 C 
ATOM     34  S   UNL d   1      18.079  -3.466  62.849  0.00  0.00    -0.100 SA
ATOM     35  C   UNL d   1      19.593  -3.495  62.138  0.00  0.00    -0.020 A 
ATOM     36  C   UNL d   1      20.722  -2.576  62.468  0.00  0.00     0.056 C 
ATOM     37  C   UNL d   1      19.634  -4.512  61.199  0.00  0.00     0.024 A 
ENDBRANCH  30  31
BRANCH  30  38
ATOM     38  C   UNL d   1      19.551  -7.212  59.947  0.00  0.00     0.021 C 
ATOM     39  C   UNL d   1      19.370  -8.685  60.314  0.00  0.00     0.007 C 
ENDBRANCH  30  38
ENDBRANCH   1  30
TORSDOF 10
ENDMDL
MODEL 9
REMARK VINA RESULT:    -8.858      1.495      2.518
REMARK INTER + INTRA:         -14.875
REMARK INTER:                 -15.164
REMARK INTRA:                   0.290
REMARK UNBOUND:                -0.838
REMARK  10 active torsions:
REMARK  status: ('A' for Active; 'I' for Inactive)
REMARK    1  A    between atoms: C_3  and  C_2 
REMARK    2  A    between atoms: C_3  and  C_5 
REMARK    3  A    between atoms: C_3  and  N_4 
REMARK    4  A    between atoms: S_6  and  N_4 
REMARK    5  A    between atoms: N_4  and  C_7 
REMARK    6  A    between atoms: S_6  and  C_10 
REMARK    7  A    between atoms: C_7  and  C_18 
REMARK    8  A    between atoms: C_28  and  C_29 
REMARK    9  A    between atoms: C_33  and  S_35 
REMARK   10  A    between atoms: S_35  and  C_36 
ROOT
ATOM      1  N   UNL d   1      17.498  -5.176  60.171  0.00  0.00    -0.192 NA
ENDROOT
BRANCH   1   2
ATOM      2  S   UNL d   1      18.302  -6.629  59.472  0.00  0.00     0.263 S 
ATOM      3  O   UNL d   1      17.220  -7.581  58.952  0.00  0.00    -0.204 OA
ATOM      4  O   UNL d   1      18.901  -7.412  60.651  0.00  0.00    -0.204 OA
BRANCH   2   5
ATOM      5  C   UNL d   1      19.517  -6.326  58.194  0.00  0.00     0.183 A 
ATOM      6  C   UNL d   1      20.754  -6.919  58.093  0.00  0.00     0.136 A 
ATOM      7  N   UNL d   1      21.363  -6.395  57.016  0.00  0.00    -0.353 N 
ATOM      8  C   UNL d   1      22.697  -6.708  56.521  0.00  0.00     0.156 C 
ATOM      9  C   UNL d   1      20.497  -5.510  56.485  0.00  0.00     0.210 A 
ATOM     10  N   UNL d   1      19.348  -5.443  57.189  0.00  0.00    -0.229 NA
ENDBRANCH   2   5
ENDBRANCH   1   2
BRANCH   1  11
ATOM     11  C   UNL d   1      16.906  -4.343  59.099  0.00  0.00     0.147 C 
BRANCH  11  12
ATOM     12  C   UNL d   1      15.448  -4.039  59.389  0.00  0.00    -0.038 A 
ATOM     13  C   UNL d   1      14.639  -4.748  60.317  0.00  0.00    -0.054 A 
ATOM     14  C   UNL d   1      15.110  -5.921  61.147  0.00  0.00     0.049 C 
ATOM     15  C   UNL d   1      13.303  -4.347  60.509  0.00  0.00     0.019 A 
ATOM     16  C   UNL d   1      12.727  -3.261  59.809  0.00  0.00    -0.025 A 
ATOM     17  C   UNL d   1      13.555  -2.588  58.886  0.00  0.00     0.013 A 
ATOM     18  C   UNL d   1      14.879  -2.971  58.682  0.00  0.00     0.010 A 
BRANCH  16  19
ATOM     19  C   UNL d   1      11.287  -2.832  60.045  0.00  0.00    -0.025 A 
ATOM     20  C   UNL d   1      10.344  -3.696  60.659  0.00  0.00     0.012 A 
ATOM     21  C   UNL d   1       9.024  -3.295  60.875  0.00  0.00     0.002 A 
ATOM     22  C   UNL d   1       8.601  -2.027  60.491  0.00  0.00     0.023 A 
ATOM     23  C   UNL d   1       9.500  -1.149  59.888  0.00  0.00     0.060 A 
ATOM     24  C   UNL d   1      10.825  -1.546  59.664  0.00  0.00     0.035 A 
BRANCH  23  25
ATOM     25  S   UNL d   1       8.953   0.488  59.386  0.00  0.00     0.175 S 
ATOM     26  O   UNL d   1       9.567   1.492  60.375  0.00  0.00    -0.223 OA
ATOM     27  O   UNL d   1       7.480   0.623  59.806  0.00  0.00    -0.223 OA
BRANCH  25  28
ATOM     28  C   UNL d   1       9.128   1.167  57.704  0.00  0.00     0.141 C 
ATOM     29  C   UNL d   1       8.013   2.158  57.393  0.00  0.00     0.021 C 
ENDBRANCH  25  28
ENDBRANCH  23  25
ENDBRANCH  16  19
ENDBRANCH  11  12
ENDBRANCH   1  11
BRANCH   1  30
ATOM     30  C   UNL d   1      18.231  -4.338  61.167  0.00  0.00     0.108 C 
BRANCH  30  31
ATOM     31  C   UNL d   1      18.437  -2.891  60.723  0.00  0.00    -0.026 A 
ATOM     32  C   UNL d   1      18.037  -1.756  61.458  0.00  0.00    -0.013 A 
ATOM     33  C   UNL d   1      17.323  -1.678  62.775  0.00  0.00     0.057 C 
ATOM     34  S   UNL d   1      18.474  -0.371  60.608  0.00  0.00    -0.100 SA
ATOM     35  C   UNL d   1      19.177  -1.170  59.316  0.00  0.00    -0.020 A 
ATOM     36  C   UNL d   1      19.811  -0.514  58.135  0.00  0.00     0.056 C 
ATOM     37  C   UNL d   1      19.084  -2.537  59.522  0.00  0.00     0.024 A 
ENDBRANCH  30  31
BRANCH  30  38
ATOM     38  C   UNL d   1      19.545  -4.972  61.675  0.00  0.00     0.021 C 
ATOM     39  C   UNL d   1      20.296  -4.047  62.633  0.00  0.00     0.007 C 
ENDBRANCH  30  38
ENDBRANCH   1  30
TORSDOF 10
ENDMDL
