REMARK  11 active torsions:
REMARK  status: ('A' for Active; 'I' for Inactive)
REMARK    1  A    between atoms: C_3  and  C_2 
REMARK    2  A    between atoms: C_4  and  C_3 
REMARK    3  A    between atoms: C_5  and  C_4 
REMARK    4  A    between atoms: C_5  and  C_7 
REMARK    5  A    between atoms: C_5  and  N_6 
REMARK    6  A    between atoms: S_8  and  N_6 
REMARK    7  A    between atoms: N_6  and  C_9 
REMARK    8  A    between atoms: S_8  and  C_12 
REMARK    9  A    between atoms: C_9  and  C_20 
REMARK   10  A    between atoms: C_30  and  C_31 
REMARK   11  A    between atoms: C_35  and  S_37 
ROOT
ATOM      1  N   UNL d   1       4.383   0.461  -1.254  0.00  0.00    -0.192 NA
ENDROOT
BRANCH   1   2
ATOM      2  S   UNL d   1       2.754  -0.267  -1.023  0.00  0.00     0.263 S 
ATOM      3  O   UNL d   1       2.056   0.657  -0.015  0.00  0.00    -0.204 OA
ATOM      4  O   UNL d   1       2.943  -1.510  -0.143  0.00  0.00    -0.204 OA
BRANCH   2   5
ATOM      5  C   UNL d   1       1.662  -0.573  -2.412  0.00  0.00     0.183 A 
ATOM      6  C   UNL d   1       0.745  -1.595  -2.501  0.00  0.00     0.136 A 
ATOM      7  N   UNL d   1       0.134  -1.482  -3.692  0.00  0.00    -0.353 N 
ATOM      8  C   UNL d   1      -0.911  -2.344  -4.230  0.00  0.00     0.156 C 
ATOM      9  C   UNL d   1       0.681  -0.411  -4.298  0.00  0.00     0.210 A 
ATOM     10  N   UNL d   1       1.627   0.172  -3.534  0.00  0.00    -0.229 NA
ENDBRANCH   2   5
ENDBRANCH   1   2
BRANCH   1  11
ATOM     11  C   UNL d   1       4.275   1.780  -1.917  0.00  0.00     0.147 C 
BRANCH  11  12
ATOM     12  C   UNL d   1       3.717   2.817  -0.959  0.00  0.00    -0.038 A 
ATOM     13  C   UNL d   1       2.540   3.581  -1.177  0.00  0.00    -0.054 A 
ATOM     14  C   UNL d   1       1.668   3.478  -2.406  0.00  0.00     0.049 C 
ATOM     15  C   UNL d   1       2.131   4.510  -0.201  0.00  0.00     0.019 A 
ATOM     16  C   UNL d   1       2.856   4.720   0.997  0.00  0.00    -0.025 A 
ATOM     17  C   UNL d   1       4.024   3.949   1.178  0.00  0.00     0.013 A 
ATOM     18  C   UNL d   1       4.439   3.024   0.224  0.00  0.00     0.010 A 
BRANCH  16  19
ATOM     19  C   UNL d   1       2.404   5.729   2.038  0.00  0.00    -0.025 A 
ATOM     20  C   UNL d   1       3.207   6.038   3.167  0.00  0.00     0.012 A 
ATOM     21  C   UNL d   1       2.789   6.966   4.123  0.00  0.00     0.002 A 
ATOM     22  C   UNL d   1       1.566   7.613   3.990  0.00  0.00     0.023 A 
ATOM     23  C   UNL d   1       0.749   7.336   2.894  0.00  0.00     0.059 A 
ATOM     24  C   UNL d   1       1.161   6.405   1.931  0.00  0.00     0.035 A 
BRANCH  23  25
ATOM     25  S   UNL d   1      -0.835   8.167   2.731  0.00  0.00     0.171 S 
ATOM     26  O   UNL d   1      -1.066   8.429   1.235  0.00  0.00    -0.223 OA
ATOM     27  C   UNL d   1      -2.402   7.587   3.437  0.00  0.00     0.167 C 
ATOM     28  O   UNL d   1      -0.635   9.621   3.184  0.00  0.00    -0.223 OA
ENDBRANCH  23  25
ENDBRANCH  16  19
ENDBRANCH  11  12
ENDBRANCH   1  11
BRANCH   1  29
ATOM     29  C   UNL d   1       5.444  -0.388  -1.871  0.00  0.00     0.108 C 
BRANCH  29  30
ATOM     30  C   UNL d   1       5.104  -0.868  -3.279  0.00  0.00    -0.026 A 
ATOM     31  C   UNL d   1       5.683  -0.376  -4.465  0.00  0.00    -0.013 A 
ATOM     32  C   UNL d   1       6.703   0.709  -4.642  0.00  0.00     0.057 C 
ATOM     33  S   UNL d   1       5.035  -1.209  -5.775  0.00  0.00    -0.100 SA
ATOM     34  C   UNL d   1       4.034  -2.206  -4.875  0.00  0.00    -0.020 A 
ATOM     35  C   UNL d   1       3.134  -3.257  -5.432  0.00  0.00     0.056 C 
ATOM     36  C   UNL d   1       4.184  -1.904  -3.531  0.00  0.00     0.024 A 
ENDBRANCH  29  30
BRANCH  29  37
ATOM     37  C   UNL d   1       5.878  -1.551  -0.945  0.00  0.00     0.026 C 
BRANCH  37  38
ATOM     38  C   UNL d   1       7.094  -2.357  -1.456  0.00  0.00     0.002 C 
BRANCH  38  39
ATOM     39  C   UNL d   1       8.395  -1.553  -1.645  0.00  0.00    -0.004 C 
ATOM     40  C   UNL d   1       8.896  -0.909  -0.353  0.00  0.00     0.005 C 
ENDBRANCH  38  39
ENDBRANCH  37  38
ENDBRANCH  29  37
ENDBRANCH   1  29
TORSDOF 11
