/content/1PQ6_Docking/DOCKING/CLC-0000189/CLC-0000189_output.pdbqt
 OpenBabel03072503353D

 40 43  0  0  1  0  0  0  0  0999 V2000
   18.0390   -3.9730   60.2870 N   0  0  0  0  0  0  0  0  0  0  0  0
   18.3290   -5.7390   60.4740 S   0  0  0  0  0  0  0  0  0  0  0  0
   16.9250   -6.3570   60.5430 O   0  0  0  0  0  0  0  0  0  0  0  0
   18.7800   -5.9650   61.9230 O   0  0  0  0  0  0  0  0  0  0  0  0
   19.3280   -6.6510   59.2970 C   0  0  0  0  0  0  0  0  0  0  0  0
   19.9760   -6.1140   58.2090 C   0  0  0  0  0  3  0  0  0  0  0  0
   20.6070   -7.1210   57.5810 N   0  0  0  0  0  0  0  0  0  0  0  0
   21.4210   -7.0330   56.3760 C   0  0  0  0  0  1  0  0  0  0  0  0
   20.3350   -8.2350   58.2860 C   0  0  0  0  0  3  0  0  0  0  0  0
   19.5490   -7.9790   59.3510 N   0  0  0  0  0  0  0  0  0  0  0  0
   17.3610   -3.6890   59.0020 C   0  0  0  0  0  2  0  0  0  0  0  0
   15.9080   -3.3150   59.2350 C   0  0  0  0  0  0  0  0  0  0  0  0
   15.4090   -1.9880   59.3110 C   0  0  0  0  0  0  0  0  0  0  0  0
   16.2560   -0.7450   59.1770 C   0  0  0  0  0  1  0  0  0  0  0  0
   14.0330   -1.7820   59.5280 C   0  0  0  0  0  3  0  0  0  0  0  0
   13.1200   -2.8530   59.6810 C   0  0  0  0  0  0  0  0  0  0  0  0
   13.6520   -4.1580   59.6070 C   0  0  0  0  0  3  0  0  0  0  0  0
   15.0090   -4.3790   59.3890 C   0  0  0  0  0  3  0  0  0  0  0  0
   11.6390   -2.6140   59.9190 C   0  0  0  0  0  0  0  0  0  0  0  0
   10.8050   -3.6230   60.4680 C   0  0  0  0  0  3  0  0  0  0  0  0
    9.4440   -3.4000   60.6850 C   0  0  0  0  0  3  0  0  0  0  0  0
    8.8700   -2.1760   60.3650 C   0  0  0  0  0  3  0  0  0  0  0  0
    9.6570   -1.1590   59.8230 C   0  0  0  0  0  0  0  0  0  0  0  0
   11.0240   -1.3760   59.6010 C   0  0  0  0  0  3  0  0  0  0  0  0
    8.9090    0.4180   59.4020 S   0  0  0  0  0  0  0  0  0  0  0  0
    9.5190    1.4800   60.3300 O   0  0  0  0  0  0  0  0  0  0  0  0
    8.8250    1.1270   57.7340 C   0  0  0  0  0  1  0  0  0  0  0  0
    7.4840    0.4140   59.9740 O   0  0  0  0  0  0  0  0  0  0  0  0
   19.1870   -3.0500   60.5280 C   0  0  2  0  0  3  0  0  0  0  0  0
   19.4040   -2.7110   62.0000 C   0  0  0  0  0  0  0  0  0  0  0  0
   18.4260   -2.1770   62.8610 C   0  0  0  0  0  0  0  0  0  0  0  0
   17.0070   -1.7950   62.5610 C   0  0  0  0  0  1  0  0  0  0  0  0
   19.0920   -1.9900   64.3940 S   0  0  0  0  0  0  0  0  0  0  0  0
   20.6070   -2.5880   64.0040 C   0  0  0  0  0  0  0  0  0  0  0  0
   21.7510   -2.7270   64.9510 C   0  0  0  0  0  1  0  0  0  0  0  0
   20.6230   -2.9430   62.6650 C   0  0  0  0  0  3  0  0  0  0  0  0
   19.1190   -1.7840   59.6390 C   0  0  0  0  0  2  0  0  0  0  0  0
   20.1570   -1.7470   58.4950 C   0  0  0  0  0  2  0  0  0  0  0  0
   20.3240   -0.3870   57.7890 C   0  0  0  0  0  2  0  0  0  0  0  0
   21.7850   -0.0160   57.5370 C   0  0  0  0  0  1  0  0  0  0  0  0
  1  2  1  0  0  0  0
  1 29  1  0  0  0  0
  2  3  2  0  0  0  0
  2  4  2  0  0  0  0
  5 10  1  0  0  0  0
  5  2  1  0  0  0  0
  6  5  2  0  0  0  0
  7  6  1  0  0  0  0
  7  9  1  0  0  0  0
  8  7  1  0  0  0  0
  9 10  2  0  0  0  0
 11 12  1  0  0  0  0
 11  1  1  0  0  0  0
 12 13  2  0  0  0  0
 12 18  1  0  0  0  0
 13 15  1  0  0  0  0
 14 13  1  0  0  0  0
 15 16  2  0  0  0  0
 16 19  1  0  0  0  0
 17 16  1  0  0  0  0
 18 17  2  0  0  0  0
 19 20  1  0  0  0  0
 20 21  2  0  0  0  0
 22 21  1  0  0  0  0
 23 22  2  0  0  0  0
 24 23  1  0  0  0  0
 24 19  2  0  0  0  0
 25 23  1  0  0  0  0
 25 28  2  0  0  0  0
 25 26  2  0  0  0  0
 27 25  1  0  0  0  0
 29 37  1  6  0  0  0
 29 30  1  0  0  0  0
 30 36  1  0  0  0  0
 30 31  2  0  0  0  0
 31 33  1  0  0  0  0
 32 31  1  0  0  0  0
 34 33  1  0  0  0  0
 34 35  1  0  0  0  0
 36 34  2  0  0  0  0
 38 37  1  0  0  0  0
 39 38  1  0  0  0  0
 40 39  1  0  0  0  0
M  END
>  <POSE>
1

>  <SCORE>
-9.952

>  <RMSD_LB_BP>
0.000

>  <RMSD_UB_BP>
0.000

$$$$
/content/1PQ6_Docking/DOCKING/CLC-0000189/CLC-0000189_output.pdbqt
 OpenBabel03072503353D

 40 43  0  0  1  0  0  0  0  0999 V2000
   17.4830   -2.5370   60.1240 N   0  0  0  0  0  0  0  0  0  0  0  0
   18.0950   -1.7170   61.6050 S   0  0  0  0  0  0  0  0  0  0  0  0
   16.8540   -1.5400   62.4910 O   0  0  0  0  0  0  0  0  0  0  0  0
   18.3530   -0.2520   61.2280 O   0  0  0  0  0  0  0  0  0  0  0  0
   19.4300   -2.4170   62.5760 C   0  0  0  0  0  0  0  0  0  0  0  0
   19.8220   -1.9910   63.8240 C   0  0  0  0  0  3  0  0  0  0  0  0
   20.8530   -2.7640   64.2060 N   0  0  0  0  0  0  0  0  0  0  0  0
   21.5970   -2.6840   65.4560 C   0  0  0  0  0  1  0  0  0  0  0  0
   21.0670   -3.6330   63.1990 C   0  0  0  0  0  3  0  0  0  0  0  0
   20.2060   -3.4450   62.1790 N   0  0  0  0  0  0  0  0  0  0  0  0
   16.7410   -3.7670   60.4790 C   0  0  0  0  0  2  0  0  0  0  0  0
   15.2460   -3.5550   60.3210 C   0  0  0  0  0  0  0  0  0  0  0  0
   14.2420   -4.4590   60.7580 C   0  0  0  0  0  0  0  0  0  0  0  0
   14.5160   -5.7760   61.4440 C   0  0  0  0  0  1  0  0  0  0  0  0
   12.8870   -4.1360   60.5510 C   0  0  0  0  0  3  0  0  0  0  0  0
   12.4820   -2.9390   59.9120 C   0  0  0  0  0  0  0  0  0  0  0  0
   13.5050   -2.0670   59.4850 C   0  0  0  0  0  3  0  0  0  0  0  0
   14.8490   -2.3710   59.6860 C   0  0  0  0  0  3  0  0  0  0  0  0
   11.0160   -2.6080   59.6930 C   0  0  0  0  0  0  0  0  0  0  0  0
   10.0260   -3.6240   59.6480 C   0  0  0  0  0  3  0  0  0  0  0  0
    8.6790   -3.3170   59.4460 C   0  0  0  0  0  3  0  0  0  0  0  0
    8.2740   -1.9970   59.2800 C   0  0  0  0  0  3  0  0  0  0  0  0
    9.2180   -0.9710   59.3180 C   0  0  0  0  0  0  0  0  0  0  0  0
   10.5710   -1.2720   59.5190 C   0  0  0  0  0  3  0  0  0  0  0  0
    8.6910    0.7320   59.0940 S   0  0  0  0  0  0  0  0  0  0  0  0
    9.4350    1.5840   60.1330 O   0  0  0  0  0  0  0  0  0  0  0  0
    8.7110    1.6380   57.5230 C   0  0  0  0  0  1  0  0  0  0  0  0
    7.2760    0.8510   59.6780 O   0  0  0  0  0  0  0  0  0  0  0  0
   18.4470   -2.7690   59.0080 C   0  0  2  0  0  3  0  0  0  0  0  0
   18.6990   -4.2450   58.7130 C   0  0  0  0  0  0  0  0  0  0  0  0
   18.8500   -4.8000   57.4280 C   0  0  0  0  0  0  0  0  0  0  0  0
   18.7720   -4.1270   56.0900 C   0  0  0  0  0  1  0  0  0  0  0  0
   19.1400   -6.4500   57.5770 S   0  0  0  0  0  0  0  0  0  0  0  0
   19.0970   -6.4890   59.2510 C   0  0  0  0  0  0  0  0  0  0  0  0
   19.3020   -7.7030   60.0930 C   0  0  0  0  0  1  0  0  0  0  0  0
   18.8500   -5.2110   59.7270 C   0  0  0  0  0  3  0  0  0  0  0  0
   19.7640   -1.9760   59.1940 C   0  0  0  0  0  2  0  0  0  0  0  0
   19.8800   -0.7120   58.3120 C   0  0  0  0  0  2  0  0  0  0  0  0
   21.1000   -0.6650   57.3720 C   0  0  0  0  0  2  0  0  0  0  0  0
   22.1090    0.4180   57.7520 C   0  0  0  0  0  1  0  0  0  0  0  0
  1 11  1  0  0  0  0
  1  2  1  0  0  0  0
  2  3  2  0  0  0  0
  2  5  1  0  0  0  0
  4  2  2  0  0  0  0
  5  6  2  0  0  0  0
  6  7  1  0  0  0  0
  7  8  1  0  0  0  0
  9  7  1  0  0  0  0
 10  5  1  0  0  0  0
 10  9  2  0  0  0  0
 12 11  1  0  0  0  0
 12 13  1  0  0  0  0
 13 14  1  0  0  0  0
 15 13  2  0  0  0  0
 16 15  1  0  0  0  0
 17 18  1  0  0  0  0
 17 16  2  0  0  0  0
 18 12  2  0  0  0  0
 19 16  1  0  0  0  0
 20 19  1  0  0  0  0
 21 20  2  0  0  0  0
 22 23  2  0  0  0  0
 22 21  1  0  0  0  0
 23 24  1  0  0  0  0
 24 19  2  0  0  0  0
 25 23  1  0  0  0  0
 25 28  2  0  0  0  0
 25 26  2  0  0  0  0
 27 25  1  0  0  0  0
 29 37  1  1  0  0  0
 29  1  1  0  0  0  0
 30 29  1  0  0  0  0
 30 36  1  0  0  0  0
 31 33  1  0  0  0  0
 31 30  2  0  0  0  0
 32 31  1  0  0  0  0
 33 34  1  0  0  0  0
 34 36  2  0  0  0  0
 34 35  1  0  0  0  0
 38 37  1  0  0  0  0
 39 40  1  0  0  0  0
 39 38  1  0  0  0  0
M  END
>  <POSE>
2

>  <SCORE>
-9.786

>  <RMSD_LB_BP>
2.176

>  <RMSD_UB_BP>
4.337

$$$$
/content/1PQ6_Docking/DOCKING/CLC-0000189/CLC-0000189_output.pdbqt
 OpenBabel03072503353D

 40 43  0  0  1  0  0  0  0  0999 V2000
   17.4720   -4.4200   58.4960 N   0  0  0  0  0  0  0  0  0  0  0  0
   18.3610   -3.0310   59.2140 S   0  0  0  0  0  0  0  0  0  0  0  0
   17.3800   -1.8540   59.1220 O   0  0  0  0  0  0  0  0  0  0  0  0
   19.3980   -2.5820   58.1750 O   0  0  0  0  0  0  0  0  0  0  0  0
   19.0440   -3.1130   60.8700 C   0  0  0  0  0  0  0  0  0  0  0  0
   18.9140   -2.1470   61.8400 C   0  0  0  0  0  3  0  0  0  0  0  0
   19.5690   -2.5820   62.9290 N   0  0  0  0  0  0  0  0  0  0  0  0
   19.7070   -1.8930   64.2070 C   0  0  0  0  0  1  0  0  0  0  0  0
   20.0800   -3.7860   62.6080 C   0  0  0  0  0  3  0  0  0  0  0  0
   19.7730   -4.1420   61.3440 N   0  0  0  0  0  0  0  0  0  0  0  0
   16.7870   -5.2010   59.5510 C   0  0  0  0  0  2  0  0  0  0  0  0
   15.3780   -4.6810   59.7730 C   0  0  0  0  0  0  0  0  0  0  0  0
   14.5440   -5.0240   60.8700 C   0  0  0  0  0  0  0  0  0  0  0  0
   14.9360   -5.9680   61.9810 C   0  0  0  0  0  1  0  0  0  0  0  0
   13.2550   -4.4640   60.9560 C   0  0  0  0  0  3  0  0  0  0  0  0
   12.7490   -3.5700   59.9810 C   0  0  0  0  0  0  0  0  0  0  0  0
   13.6020   -3.2570   58.9010 C   0  0  0  0  0  3  0  0  0  0  0  0
   14.8800   -3.7990   58.8040 C   0  0  0  0  0  3  0  0  0  0  0  0
   11.3550   -2.9780   60.0870 C   0  0  0  0  0  0  0  0  0  0  0  0
   10.2530   -3.7540   60.5320 C   0  0  0  0  0  3  0  0  0  0  0  0
    8.9710   -3.2080   60.6280 C   0  0  0  0  0  3  0  0  0  0  0  0
    8.7440   -1.8800   60.2850 C   0  0  0  0  0  3  0  0  0  0  0  0
    9.8010   -1.0860   59.8430 C   0  0  0  0  0  0  0  0  0  0  0  0
   11.0900   -1.6270   59.7430 C   0  0  0  0  0  3  0  0  0  0  0  0
    9.5010    0.6270   59.3910 S   0  0  0  0  0  0  0  0  0  0  0  0
   10.4820    0.9850   58.2650 O   0  0  0  0  0  0  0  0  0  0  0  0
    7.8860    1.3300   58.9590 C   0  0  0  0  0  1  0  0  0  0  0  0
   10.1040    1.5020   60.4990 O   0  0  0  0  0  0  0  0  0  0  0  0
   18.2080   -5.2990   57.5410 C   0  0  2  0  0  3  0  0  0  0  0  0
   18.4120   -6.7240   58.0500 C   0  0  0  0  0  0  0  0  0  0  0  0
   18.1440   -7.8940   57.3130 C   0  0  0  0  0  0  0  0  0  0  0  0
   17.5900   -8.0340   55.9270 C   0  0  0  0  0  1  0  0  0  0  0  0
   18.5400   -9.2320   58.2510 S   0  0  0  0  0  0  0  0  0  0  0  0
   19.0660   -8.3660   59.5850 C   0  0  0  0  0  0  0  0  0  0  0  0
   19.5970   -8.9590   60.8470 C   0  0  0  0  0  1  0  0  0  0  0  0
   18.9380   -7.0110   59.3240 C   0  0  0  0  0  3  0  0  0  0  0  0
   19.5300   -4.6580   57.0520 C   0  0  0  0  0  2  0  0  0  0  0  0
   20.3850   -5.5680   56.1410 C   0  0  0  0  0  2  0  0  0  0  0  0
   21.7700   -5.9550   56.6960 C   0  0  0  0  0  2  0  0  0  0  0  0
   21.8600   -7.4210   57.1190 C   0  0  0  0  0  1  0  0  0  0  0  0
  1  2  1  0  0  0  0
  1 11  1  0  0  0  0
  2  5  1  0  0  0  0
  3  2  2  0  0  0  0
  4  2  2  0  0  0  0
  5 10  1  0  0  0  0
  5  6  2  0  0  0  0
  6  7  1  0  0  0  0
  7  8  1  0  0  0  0
  9  7  1  0  0  0  0
 10  9  2  0  0  0  0
 11 12  1  0  0  0  0
 12 13  1  0  0  0  0
 13 15  2  0  0  0  0
 13 14  1  0  0  0  0
 16 19  1  0  0  0  0
 16 15  1  0  0  0  0
 17 16  2  0  0  0  0
 18 17  1  0  0  0  0
 18 12  2  0  0  0  0
 19 20  1  0  0  0  0
 20 21  2  0  0  0  0
 22 21  1  0  0  0  0
 23 22  2  0  0  0  0
 24 23  1  0  0  0  0
 24 19  2  0  0  0  0
 25 23  1  0  0  0  0
 25 28  2  0  0  0  0
 26 25  2  0  0  0  0
 27 25  1  0  0  0  0
 29 37  1  1  0  0  0
 29 30  1  0  0  0  0
 29  1  1  0  0  0  0
 30 36  1  0  0  0  0
 31 30  2  0  0  0  0
 31 33  1  0  0  0  0
 32 31  1  0  0  0  0
 33 34  1  0  0  0  0
 34 35  1  0  0  0  0
 36 34  2  0  0  0  0
 38 39  1  0  0  0  0
 38 37  1  0  0  0  0
 39 40  1  0  0  0  0
M  END
>  <POSE>
3

>  <SCORE>
-9.323

>  <RMSD_LB_BP>
2.456

>  <RMSD_UB_BP>
4.860

$$$$
/content/1PQ6_Docking/DOCKING/CLC-0000189/CLC-0000189_output.pdbqt
 OpenBabel03072503353D

 40 43  0  0  1  0  0  0  0  0999 V2000
   15.7450   -3.8470   60.8150 N   0  0  0  0  0  0  0  0  0  0  0  0
   16.1150   -5.5720   61.1680 S   0  0  0  0  0  0  0  0  0  0  0  0
   14.7640   -6.2910   61.0450 O   0  0  0  0  0  0  0  0  0  0  0  0
   16.3260   -5.6800   62.6840 O   0  0  0  0  0  0  0  0  0  0  0  0
   17.3590   -6.4690   60.2400 C   0  0  0  0  0  0  0  0  0  0  0  0
   17.2150   -6.9430   58.9560 C   0  0  0  0  0  3  0  0  0  0  0  0
   18.3630   -7.5590   58.6250 N   0  0  0  0  0  0  0  0  0  0  0  0
   18.6760   -8.2170   57.3630 C   0  0  0  0  0  1  0  0  0  0  0  0
   19.1720   -7.4510   59.6960 C   0  0  0  0  0  3  0  0  0  0  0  0
   18.5820   -6.7840   60.7090 N   0  0  0  0  0  0  0  0  0  0  0  0
   15.1000   -3.7130   59.4900 C   0  0  0  0  0  2  0  0  0  0  0  0
   13.7680   -2.9960   59.6120 C   0  0  0  0  0  0  0  0  0  0  0  0
   13.5640   -1.6080   59.3910 C   0  0  0  0  0  0  0  0  0  0  0  0
   14.6520   -0.6330   59.0050 C   0  0  0  0  0  1  0  0  0  0  0  0
   12.2710   -1.0700   59.5350 C   0  0  0  0  0  3  0  0  0  0  0  0
   11.1560   -1.8630   59.9030 C   0  0  0  0  0  0  0  0  0  0  0  0
   11.3960   -3.2360   60.1210 C   0  0  0  0  0  3  0  0  0  0  0  0
   12.6680   -3.7830   59.9790 C   0  0  0  0  0  3  0  0  0  0  0  0
    9.7680   -1.2660   60.0590 C   0  0  0  0  0  0  0  0  0  0  0  0
    8.8570   -1.7580   61.0300 C   0  0  0  0  0  3  0  0  0  0  0  0
    7.5810   -1.2080   61.1710 C   0  0  0  0  0  3  0  0  0  0  0  0
    7.1710   -0.1590   60.3570 C   0  0  0  0  0  3  0  0  0  0  0  0
    8.0390    0.3510   59.3910 C   0  0  0  0  0  0  0  0  0  0  0  0
    9.3200   -0.1960   59.2420 C   0  0  0  0  0  3  0  0  0  0  0  0
    7.5020    1.7010   58.3340 S   0  0  0  0  0  0  0  0  0  0  0  0
    7.4570    2.9710   59.1960 O   0  0  0  0  0  0  0  0  0  0  0  0
    8.2430    2.1430   56.7390 C   0  0  0  0  0  1  0  0  0  0  0  0
    5.9920    1.5300   58.1100 O   0  0  0  0  0  0  0  0  0  0  0  0
   16.8360   -2.8470   61.0080 C   0  0  2  0  0  3  0  0  0  0  0  0
   17.6780   -2.6090   59.7580 C   0  0  0  0  0  0  0  0  0  0  0  0
   18.2220   -1.3690   59.3710 C   0  0  0  0  0  0  0  0  0  0  0  0
   18.0930   -0.0300   60.0330 C   0  0  0  0  0  1  0  0  0  0  0  0
   19.0990   -1.5770   57.9510 S   0  0  0  0  0  0  0  0  0  0  0  0
   18.8240   -3.2240   57.8110 C   0  0  0  0  0  0  0  0  0  0  0  0
   19.3510   -4.0990   56.7240 C   0  0  0  0  0  1  0  0  0  0  0  0
   18.0360   -3.6430   58.8710 C   0  0  0  0  0  3  0  0  0  0  0  0
   17.7070   -3.1600   62.2500 C   0  0  0  0  0  2  0  0  0  0  0  0
   17.8910   -1.9710   63.2200 C   0  0  0  0  0  2  0  0  0  0  0  0
   19.1950   -1.9750   64.0400 C   0  0  0  0  0  2  0  0  0  0  0  0
   20.3040   -2.8100   63.4010 C   0  0  0  0  0  1  0  0  0  0  0  0
  1 29  1  0  0  0  0
  1  2  1  0  0  0  0
  2  4  2  0  0  0  0
  3  2  2  0  0  0  0
  5 10  1  0  0  0  0
  5  2  1  0  0  0  0
  6  5  2  0  0  0  0
  7  6  1  0  0  0  0
  7  9  1  0  0  0  0
  8  7  1  0  0  0  0
  9 10  2  0  0  0  0
 11 12  1  0  0  0  0
 11  1  1  0  0  0  0
 12 18  1  0  0  0  0
 13 15  1  0  0  0  0
 13 12  2  0  0  0  0
 14 13  1  0  0  0  0
 15 16  2  0  0  0  0
 16 19  1  0  0  0  0
 16 17  1  0  0  0  0
 18 17  2  0  0  0  0
 19 20  1  0  0  0  0
 20 21  2  0  0  0  0
 22 21  1  0  0  0  0
 23 22  2  0  0  0  0
 24 23  1  0  0  0  0
 24 19  2  0  0  0  0
 25 26  2  0  0  0  0
 25 23  1  0  0  0  0
 27 25  1  0  0  0  0
 28 25  2  0  0  0  0
 29 37  1  1  0  0  0
 30 29  1  0  0  0  0
 31 30  2  0  0  0  0
 31 32  1  0  0  0  0
 33 31  1  0  0  0  0
 34 33  1  0  0  0  0
 34 36  2  0  0  0  0
 35 34  1  0  0  0  0
 36 30  1  0  0  0  0
 37 38  1  0  0  0  0
 38 39  1  0  0  0  0
 40 39  1  0  0  0  0
M  END
>  <POSE>
4

>  <SCORE>
-9.204

>  <RMSD_LB_BP>
2.016

>  <RMSD_UB_BP>
3.539

$$$$
/content/1PQ6_Docking/DOCKING/CLC-0000189/CLC-0000189_output.pdbqt
 OpenBabel03072503353D

 40 43  0  0  1  0  0  0  0  0999 V2000
   17.2690   -4.6560   60.3530 N   0  0  0  0  0  0  0  0  0  0  0  0
   18.7960   -5.5720   60.0960 S   0  0  0  0  0  0  0  0  0  0  0  0
   18.5260   -6.9550   60.7070 O   0  0  0  0  0  0  0  0  0  0  0  0
   19.8130   -5.0370   61.1120 O   0  0  0  0  0  0  0  0  0  0  0  0
   19.5040   -5.7680   58.4600 C   0  0  0  0  0  0  0  0  0  0  0  0
   20.3220   -6.7990   58.0580 C   0  0  0  0  0  3  0  0  0  0  0  0
   20.6400   -6.5790   56.7720 N   0  0  0  0  0  0  0  0  0  0  0  0
   21.4890   -7.4050   55.9220 C   0  0  0  0  0  1  0  0  0  0  0  0
   20.0210   -5.4370   56.4180 C   0  0  0  0  0  3  0  0  0  0  0  0
   19.3110   -4.9120   57.4370 N   0  0  0  0  0  0  0  0  0  0  0  0
   16.4280   -4.6930   59.1360 C   0  0  0  0  0  2  0  0  0  0  0  0
   15.0090   -4.2570   59.4520 C   0  0  0  0  0  0  0  0  0  0  0  0
   14.2540   -4.6870   60.5760 C   0  0  0  0  0  0  0  0  0  0  0  0
   14.7530   -5.6530   61.6240 C   0  0  0  0  0  1  0  0  0  0  0  0
   12.9440   -4.2010   60.7520 C   0  0  0  0  0  3  0  0  0  0  0  0
   12.3410   -3.2980   59.8440 C   0  0  0  0  0  0  0  0  0  0  0  0
   13.1170   -2.8970   58.7350 C   0  0  0  0  0  3  0  0  0  0  0  0
   14.4150   -3.3660   58.5490 C   0  0  0  0  0  3  0  0  0  0  0  0
   10.9260   -2.7860   60.0460 C   0  0  0  0  0  0  0  0  0  0  0  0
    9.9410   -3.5710   60.7010 C   0  0  0  0  0  3  0  0  0  0  0  0
    8.6410   -3.0980   60.8860 C   0  0  0  0  0  3  0  0  0  0  0  0
    8.2770   -1.8380   60.4270 C   0  0  0  0  0  3  0  0  0  0  0  0
    9.2160   -1.0370   59.7780 C   0  0  0  0  0  0  0  0  0  0  0  0
   10.5240   -1.5050   59.5880 C   0  0  0  0  0  3  0  0  0  0  0  0
    8.7400    0.5880   59.1780 S   0  0  0  0  0  0  0  0  0  0  0  0
    9.3600    1.6280   60.1230 O   0  0  0  0  0  0  0  0  0  0  0  0
    8.9600    1.1850   57.4800 C   0  0  0  0  0  1  0  0  0  0  0  0
    7.2650    0.7970   59.5540 O   0  0  0  0  0  0  0  0  0  0  0  0
   17.3710   -3.2790   60.9200 C   0  0  2  0  0  3  0  0  0  0  0  0
   17.8530   -2.2370   59.9150 C   0  0  0  0  0  0  0  0  0  0  0  0
   17.0640   -1.2010   59.3790 C   0  0  0  0  0  0  0  0  0  0  0  0
   15.6160   -0.8920   59.6190 C   0  0  0  0  0  1  0  0  0  0  0  0
   18.0090   -0.2760   58.3390 S   0  0  0  0  0  0  0  0  0  0  0  0
   19.4210   -1.1490   58.5580 C   0  0  0  0  0  0  0  0  0  0  0  0
   20.7310   -0.8520   57.9080 C   0  0  0  0  0  1  0  0  0  0  0  0
   19.1800   -2.1850   59.4470 C   0  0  0  0  0  3  0  0  0  0  0  0
   18.1850   -3.2440   62.2360 C   0  0  0  0  0  2  0  0  0  0  0  0
   17.8980   -2.0190   63.1350 C   0  0  0  0  0  2  0  0  0  0  0  0
   18.9530   -1.7260   64.2190 C   0  0  0  0  0  2  0  0  0  0  0  0
   20.2550   -2.4990   64.0150 C   0  0  0  0  0  1  0  0  0  0  0  0
  1 29  1  0  0  0  0
  2  1  1  0  0  0  0
  2  3  2  0  0  0  0
  2  4  2  0  0  0  0
  5  2  1  0  0  0  0
  6  5  2  0  0  0  0
  7  6  1  0  0  0  0
  8  7  1  0  0  0  0
  9  7  1  0  0  0  0
  9 10  2  0  0  0  0
 10  5  1  0  0  0  0
 11 12  1  0  0  0  0
 11  1  1  0  0  0  0
 12 13  1  0  0  0  0
 13 15  2  0  0  0  0
 13 14  1  0  0  0  0
 16 19  1  0  0  0  0
 16 15  1  0  0  0  0
 17 16  2  0  0  0  0
 18 17  1  0  0  0  0
 18 12  2  0  0  0  0
 19 20  1  0  0  0  0
 20 21  2  0  0  0  0
 22 21  1  0  0  0  0
 23 22  2  0  0  0  0
 24 23  1  0  0  0  0
 24 19  2  0  0  0  0
 25 28  2  0  0  0  0
 25 23  1  0  0  0  0
 25 26  2  0  0  0  0
 27 25  1  0  0  0  0
 29 37  1  1  0  0  0
 30 29  1  0  0  0  0
 31 32  1  0  0  0  0
 31 30  2  0  0  0  0
 33 34  1  0  0  0  0
 33 31  1  0  0  0  0
 34 36  2  0  0  0  0
 35 34  1  0  0  0  0
 36 30  1  0  0  0  0
 37 38  1  0  0  0  0
 38 39  1  0  0  0  0
 40 39  1  0  0  0  0
M  END
>  <POSE>
5

>  <SCORE>
-9.076

>  <RMSD_LB_BP>
1.462

>  <RMSD_UB_BP>
3.197

$$$$
/content/1PQ6_Docking/DOCKING/CLC-0000189/CLC-0000189_output.pdbqt
 OpenBabel03072503353D

 40 43  0  0  1  0  0  0  0  0999 V2000
   17.6730   -4.4160   59.6810 N   0  0  0  0  0  0  0  0  0  0  0  0
   18.6370   -4.8850   61.1260 S   0  0  0  0  0  0  0  0  0  0  0  0
   19.8610   -5.6140   60.5550 O   0  0  0  0  0  0  0  0  0  0  0  0
   17.9130   -6.0710   61.7780 O   0  0  0  0  0  0  0  0  0  0  0  0
   19.1720   -3.6660   62.3280 C   0  0  0  0  0  0  0  0  0  0  0  0
   20.3820   -3.6630   62.9830 C   0  0  0  0  0  3  0  0  0  0  0  0
   20.3930   -2.5950   63.7980 N   0  0  0  0  0  0  0  0  0  0  0  0
   21.4670   -2.1830   64.6930 C   0  0  0  0  0  1  0  0  0  0  0  0
   19.2090   -1.9770   63.6280 C   0  0  0  0  0  3  0  0  0  0  0  0
   18.4330   -2.6130   62.7280 N   0  0  0  0  0  0  0  0  0  0  0  0
   16.6200   -5.4200   59.4100 C   0  0  0  0  0  2  0  0  0  0  0  0
   15.2430   -4.8370   59.6750 C   0  0  0  0  0  0  0  0  0  0  0  0
   14.4620   -5.0830   60.8350 C   0  0  0  0  0  0  0  0  0  0  0  0
   14.8860   -5.9720   61.9800 C   0  0  0  0  0  1  0  0  0  0  0  0
   13.1980   -4.4730   60.9570 C   0  0  0  0  0  3  0  0  0  0  0  0
   12.6670   -3.6230   59.9570 C   0  0  0  0  0  0  0  0  0  0  0  0
   13.4670   -3.4060   58.8150 C   0  0  0  0  0  3  0  0  0  0  0  0
   14.7200   -3.9980   58.6820 C   0  0  0  0  0  3  0  0  0  0  0  0
   11.3010   -2.9770   60.1010 C   0  0  0  0  0  0  0  0  0  0  0  0
   10.1900   -3.7000   60.6080 C   0  0  0  0  0  3  0  0  0  0  0  0
    8.9340   -3.1030   60.7390 C   0  0  0  0  0  3  0  0  0  0  0  0
    8.7420   -1.7760   60.3720 C   0  0  0  0  0  3  0  0  0  0  0  0
    9.8100   -1.0330   59.8690 C   0  0  0  0  0  0  0  0  0  0  0  0
   11.0730   -1.6250   59.7340 C   0  0  0  0  0  3  0  0  0  0  0  0
    9.5550    0.6780   59.3870 S   0  0  0  0  0  0  0  0  0  0  0  0
   10.5510    0.9930   58.2600 O   0  0  0  0  0  0  0  0  0  0  0  0
    7.9610    1.4150   58.9330 C   0  0  0  0  0  1  0  0  0  0  0  0
   10.1740    1.5580   60.4840 O   0  0  0  0  0  0  0  0  0  0  0  0
   18.4140   -4.0370   58.4430 C   0  0  2  0  0  3  0  0  0  0  0  0
   18.8090   -2.5630   58.3910 C   0  0  0  0  0  0  0  0  0  0  0  0
   18.0020   -1.4930   58.8250 C   0  0  0  0  0  0  0  0  0  0  0  0
   16.6130   -1.5210   59.3880 C   0  0  0  0  0  1  0  0  0  0  0  0
   18.8450   -0.0530   58.6090 S   0  0  0  0  0  0  0  0  0  0  0  0
   20.2340   -0.7510   57.9850 C   0  0  0  0  0  0  0  0  0  0  0  0
   21.4600   -0.0110   57.5670 C   0  0  0  0  0  1  0  0  0  0  0  0
   20.0650   -2.1250   57.9300 C   0  0  0  0  0  3  0  0  0  0  0  0
   17.6820   -4.4920   57.1570 C   0  0  0  0  0  2  0  0  0  0  0  0
   18.4600   -5.5220   56.3070 C   0  0  0  0  0  2  0  0  0  0  0  0
   19.9260   -5.7550   56.7190 C   0  0  0  0  0  2  0  0  0  0  0  0
   20.7100   -6.5880   55.7060 C   0  0  0  0  0  1  0  0  0  0  0  0
  1  2  1  0  0  0  0
  2  4  2  0  0  0  0
  2  5  1  0  0  0  0
  3  2  2  0  0  0  0
  5 10  1  0  0  0  0
  5  6  2  0  0  0  0
  6  7  1  0  0  0  0
  7  8  1  0  0  0  0
  9  7  1  0  0  0  0
 10  9  2  0  0  0  0
 11 12  1  0  0  0  0
 11  1  1  0  0  0  0
 12 13  1  0  0  0  0
 13 15  2  0  0  0  0
 13 14  1  0  0  0  0
 16 19  1  0  0  0  0
 16 15  1  0  0  0  0
 17 16  2  0  0  0  0
 18 17  1  0  0  0  0
 18 12  2  0  0  0  0
 19 20  1  0  0  0  0
 20 21  2  0  0  0  0
 22 21  1  0  0  0  0
 23 22  2  0  0  0  0
 24 23  1  0  0  0  0
 24 19  2  0  0  0  0
 25 23  1  0  0  0  0
 25 28  2  0  0  0  0
 26 25  2  0  0  0  0
 27 25  1  0  0  0  0
 29 37  1  6  0  0  0
 29  1  1  0  0  0  0
 30 29  1  0  0  0  0
 30 31  2  0  0  0  0
 31 32  1  0  0  0  0
 33 31  1  0  0  0  0
 34 33  1  0  0  0  0
 35 34  1  0  0  0  0
 36 34  2  0  0  0  0
 36 30  1  0  0  0  0
 38 39  1  0  0  0  0
 38 37  1  0  0  0  0
 40 39  1  0  0  0  0
M  END
>  <POSE>
6

>  <SCORE>
-9.071

>  <RMSD_LB_BP>
1.772

>  <RMSD_UB_BP>
4.282

$$$$
/content/1PQ6_Docking/DOCKING/CLC-0000189/CLC-0000189_output.pdbqt
 OpenBabel03072503353D

 40 43  0  0  1  0  0  0  0  0999 V2000
   17.6590   -3.9710   59.9760 N   0  0  0  0  0  0  0  0  0  0  0  0
   18.5560   -4.5210   61.4350 S   0  0  0  0  0  0  0  0  0  0  0  0
   19.7570   -5.3000   60.8800 O   0  0  0  0  0  0  0  0  0  0  0  0
   17.7540   -5.6820   62.0380 O   0  0  0  0  0  0  0  0  0  0  0  0
   19.1170   -3.3590   62.6800 C   0  0  0  0  0  0  0  0  0  0  0  0
   20.3780   -3.3200   63.2290 C   0  0  0  0  0  3  0  0  0  0  0  0
   20.3950   -2.3150   64.1210 N   0  0  0  0  0  0  0  0  0  0  0  0
   21.5170   -1.8960   64.9520 C   0  0  0  0  0  1  0  0  0  0  0  0
   19.1640   -1.7700   64.1000 C   0  0  0  0  0  3  0  0  0  0  0  0
   18.3520   -2.3910   63.2210 N   0  0  0  0  0  0  0  0  0  0  0  0
   16.6800   -4.9950   59.5490 C   0  0  0  0  0  2  0  0  0  0  0  0
   15.2600   -4.4970   59.7500 C   0  0  0  0  0  0  0  0  0  0  0  0
   14.3770   -4.9350   60.7720 C   0  0  0  0  0  0  0  0  0  0  0  0
   14.7210   -5.9740   61.8130 C   0  0  0  0  0  1  0  0  0  0  0  0
   13.0830   -4.3850   60.8470 C   0  0  0  0  0  3  0  0  0  0  0  0
   12.6200   -3.4090   59.9320 C   0  0  0  0  0  0  0  0  0  0  0  0
   13.5200   -3.0010   58.9250 C   0  0  0  0  0  3  0  0  0  0  0  0
   14.8040   -3.5330   58.8400 C   0  0  0  0  0  3  0  0  0  0  0  0
   11.2190   -2.8290   60.0240 C   0  0  0  0  0  0  0  0  0  0  0  0
   10.1220   -3.6100   60.4720 C   0  0  0  0  0  3  0  0  0  0  0  0
    8.8350   -3.0740   60.5550 C   0  0  0  0  0  3  0  0  0  0  0  0
    8.5970   -1.7530   60.1970 C   0  0  0  0  0  3  0  0  0  0  0  0
    9.6500   -0.9530   59.7520 C   0  0  0  0  0  0  0  0  0  0  0  0
   10.9440   -1.4840   59.6650 C   0  0  0  0  0  3  0  0  0  0  0  0
    9.3370    0.7520   59.2810 S   0  0  0  0  0  0  0  0  0  0  0  0
   10.2790    1.0880   58.1150 O   0  0  0  0  0  0  0  0  0  0  0  0
    7.7080    1.4510   58.8930 C   0  0  0  0  0  1  0  0  0  0  0  0
    9.9790    1.6460   60.3530 O   0  0  0  0  0  0  0  0  0  0  0  0
   18.4530   -3.4450   58.8270 C   0  0  2  0  0  3  0  0  0  0  0  0
   19.0230   -4.5370   57.9250 C   0  0  0  0  0  0  0  0  0  0  0  0
   19.0220   -4.5070   56.5170 C   0  0  0  0  0  0  0  0  0  0  0  0
   18.4620   -3.4680   55.5910 C   0  0  0  0  0  1  0  0  0  0  0  0
   19.7750   -5.8970   55.9410 S   0  0  0  0  0  0  0  0  0  0  0  0
   20.1260   -6.5450   57.4450 C   0  0  0  0  0  0  0  0  0  0  0  0
   20.8390   -7.8330   57.6860 C   0  0  0  0  0  1  0  0  0  0  0  0
   19.6570   -5.6890   58.4280 C   0  0  0  0  0  3  0  0  0  0  0  0
   19.5350   -2.4320   59.2750 C   0  0  0  0  0  2  0  0  0  0  0  0
   19.5700   -1.1260   58.4500 C   0  0  0  0  0  2  0  0  0  0  0  0
   18.1980   -0.4980   58.1370 C   0  0  0  0  0  2  0  0  0  0  0  0
   17.4360   -0.0650   59.3890 C   0  0  0  0  0  1  0  0  0  0  0  0
  1  2  1  0  0  0  0
  2  4  2  0  0  0  0
  2  5  1  0  0  0  0
  3  2  2  0  0  0  0
  5 10  1  0  0  0  0
  5  6  2  0  0  0  0
  6  7  1  0  0  0  0
  7  8  1  0  0  0  0
  9  7  1  0  0  0  0
 10  9  2  0  0  0  0
 11 12  1  0  0  0  0
 11  1  1  0  0  0  0
 12 13  1  0  0  0  0
 13 15  2  0  0  0  0
 13 14  1  0  0  0  0
 16 19  1  0  0  0  0
 16 15  1  0  0  0  0
 17 16  2  0  0  0  0
 18 17  1  0  0  0  0
 18 12  2  0  0  0  0
 19 20  1  0  0  0  0
 20 21  2  0  0  0  0
 22 21  1  0  0  0  0
 23 22  2  0  0  0  0
 24 23  1  0  0  0  0
 24 19  2  0  0  0  0
 25 23  1  0  0  0  0
 25 28  2  0  0  0  0
 26 25  2  0  0  0  0
 27 25  1  0  0  0  0
 29 37  1  1  0  0  0
 29  1  1  0  0  0  0
 30 36  1  0  0  0  0
 30 29  1  0  0  0  0
 31 30  2  0  0  0  0
 32 31  1  0  0  0  0
 33 31  1  0  0  0  0
 33 34  1  0  0  0  0
 34 35  1  0  0  0  0
 34 36  2  0  0  0  0
 38 37  1  0  0  0  0
 39 38  1  0  0  0  0
 39 40  1  0  0  0  0
M  END
>  <POSE>
7

>  <SCORE>
-8.952

>  <RMSD_LB_BP>
1.803

>  <RMSD_UB_BP>
4.602

$$$$
/content/1PQ6_Docking/DOCKING/CLC-0000189/CLC-0000189_output.pdbqt
 OpenBabel03072503353D

 40 43  0  0  1  0  0  0  0  0999 V2000
   17.6300   -3.8980   59.7870 N   0  0  0  0  0  0  0  0  0  0  0  0
   18.5610   -3.6200   58.2730 S   0  0  0  0  0  0  0  0  0  0  0  0
   19.8140   -2.8560   58.7230 O   0  0  0  0  0  0  0  0  0  0  0  0
   17.8410   -2.5030   57.5060 O   0  0  0  0  0  0  0  0  0  0  0  0
   19.0390   -4.9820   57.2080 C   0  0  0  0  0  0  0  0  0  0  0  0
   20.3180   -5.2550   56.7810 C   0  0  0  0  0  3  0  0  0  0  0  0
   20.2550   -6.3460   56.0000 N   0  0  0  0  0  0  0  0  0  0  0  0
   21.3630   -7.0060   55.3200 C   0  0  0  0  0  1  0  0  0  0  0  0
   18.9600   -6.7120   55.9650 C   0  0  0  0  0  3  0  0  0  0  0  0
   18.1830   -5.8900   56.7000 N   0  0  0  0  0  0  0  0  0  0  0  0
   17.0580   -2.6270   60.2870 C   0  0  0  0  0  2  0  0  0  0  0  0
   15.5460   -2.6290   60.1480 C   0  0  0  0  0  0  0  0  0  0  0  0
   14.6960   -3.7160   60.4820 C   0  0  0  0  0  0  0  0  0  0  0  0
   15.1750   -5.0430   61.0230 C   0  0  0  0  0  1  0  0  0  0  0  0
   13.3050   -3.5830   60.3070 C   0  0  0  0  0  3  0  0  0  0  0  0
   12.7150   -2.4000   59.8000 C   0  0  0  0  0  0  0  0  0  0  0  0
   13.5890   -1.3420   59.4720 C   0  0  0  0  0  3  0  0  0  0  0  0
   14.9660   -1.4570   59.6430 C   0  0  0  0  0  3  0  0  0  0  0  0
   11.2130   -2.2730   59.6130 C   0  0  0  0  0  0  0  0  0  0  0  0
   10.3650   -3.4110   59.6440 C   0  0  0  0  0  3  0  0  0  0  0  0
    8.9840   -3.2920   59.4710 C   0  0  0  0  0  3  0  0  0  0  0  0
    8.4050   -2.0460   59.2620 C   0  0  0  0  0  3  0  0  0  0  0  0
    9.2060   -0.9040   59.2260 C   0  0  0  0  0  0  0  0  0  0  0  0
   10.5920   -1.0160   59.3970 C   0  0  0  0  0  3  0  0  0  0  0  0
    8.4540    0.7030   58.9460 S   0  0  0  0  0  0  0  0  0  0  0  0
    9.0910    1.6880   59.9380 O   0  0  0  0  0  0  0  0  0  0  0  0
    8.3310    1.5390   57.3410 C   0  0  0  0  0  1  0  0  0  0  0  0
    7.0430    0.6570   59.5510 O   0  0  0  0  0  0  0  0  0  0  0  0
   18.2860   -4.6800   60.8750 C   0  0  2  0  0  3  0  0  0  0  0  0
   19.0380   -3.8160   61.8840 C   0  0  0  0  0  0  0  0  0  0  0  0
   18.4380   -2.9140   62.7850 C   0  0  0  0  0  0  0  0  0  0  0  0
   16.9890   -2.5660   62.9530 C   0  0  0  0  0  1  0  0  0  0  0  0
   19.6380   -2.2020   63.7240 S   0  0  0  0  0  0  0  0  0  0  0  0
   20.9210   -3.0230   63.0280 C   0  0  0  0  0  0  0  0  0  0  0  0
   22.3540   -2.8750   63.4140 C   0  0  0  0  0  1  0  0  0  0  0  0
   20.4360   -3.8690   62.0430 C   0  0  0  0  0  3  0  0  0  0  0  0
   19.1620   -5.8320   60.3240 C   0  0  0  0  0  2  0  0  0  0  0  0
   18.4110   -7.1680   60.1240 C   0  0  0  0  0  2  0  0  0  0  0  0
   19.2410   -8.3140   59.5130 C   0  0  0  0  0  2  0  0  0  0  0  0
   18.4300   -9.2130   58.5820 C   0  0  0  0  0  1  0  0  0  0  0  0
  1 11  1  0  0  0  0
  1 29  1  0  0  0  0
  2  3  2  0  0  0  0
  2  1  1  0  0  0  0
  4  2  2  0  0  0  0
  5  2  1  0  0  0  0
  6  5  2  0  0  0  0
  7  6  1  0  0  0  0
  8  7  1  0  0  0  0
  9  7  1  0  0  0  0
  9 10  2  0  0  0  0
 10  5  1  0  0  0  0
 12 11  1  0  0  0  0
 12 13  1  0  0  0  0
 13 14  1  0  0  0  0
 15 13  2  0  0  0  0
 16 15  1  0  0  0  0
 17 18  1  0  0  0  0
 17 16  2  0  0  0  0
 18 12  2  0  0  0  0
 19 20  1  0  0  0  0
 19 16  1  0  0  0  0
 21 20  2  0  0  0  0
 22 21  1  0  0  0  0
 23 22  2  0  0  0  0
 23 24  1  0  0  0  0
 24 19  2  0  0  0  0
 25 23  1  0  0  0  0
 25 28  2  0  0  0  0
 25 26  2  0  0  0  0
 27 25  1  0  0  0  0
 29 37  1  6  0  0  0
 29 30  1  0  0  0  0
 30 36  1  0  0  0  0
 30 31  2  0  0  0  0
 31 32  1  0  0  0  0
 31 33  1  0  0  0  0
 34 35  1  0  0  0  0
 34 33  1  0  0  0  0
 36 34  2  0  0  0  0
 38 37  1  0  0  0  0
 39 38  1  0  0  0  0
 40 39  1  0  0  0  0
M  END
>  <POSE>
8

>  <SCORE>
-8.769

>  <RMSD_LB_BP>
2.113

>  <RMSD_UB_BP>
3.132

$$$$
/content/1PQ6_Docking/DOCKING/CLC-0000189/CLC-0000189_output.pdbqt
 OpenBabel03072503353D

 40 43  0  0  1  0  0  0  0  0999 V2000
   17.8940   -5.8980   59.3530 N   0  0  0  0  0  0  0  0  0  0  0  0
   18.5440   -4.7120   60.5400 S   0  0  0  0  0  0  0  0  0  0  0  0
   19.9820   -5.1790   60.8060 O   0  0  0  0  0  0  0  0  0  0  0  0
   17.9100   -5.0480   61.8970 O   0  0  0  0  0  0  0  0  0  0  0  0
   18.5380   -2.9520   60.2000 C   0  0  0  0  0  0  0  0  0  0  0  0
   18.2690   -2.3710   58.9820 C   0  0  0  0  0  3  0  0  0  0  0  0
   18.3710   -1.0410   59.1410 N   0  0  0  0  0  0  0  0  0  0  0  0
   18.1740   -0.0160   58.1240 C   0  0  0  0  0  1  0  0  0  0  0  0
   18.6970   -0.8380   60.4320 C   0  0  0  0  0  3  0  0  0  0  0  0
   18.8070   -1.9970   61.1120 N   0  0  0  0  0  0  0  0  0  0  0  0
   16.5770   -6.4090   59.7950 C   0  0  0  0  0  2  0  0  0  0  0  0
   15.5490   -5.2920   59.8170 C   0  0  0  0  0  0  0  0  0  0  0  0
   14.5860   -5.0880   60.8410 C   0  0  0  0  0  0  0  0  0  0  0  0
   14.4380   -5.9630   62.0630 C   0  0  0  0  0  1  0  0  0  0  0  0
   13.6910   -4.0060   60.7390 C   0  0  0  0  0  3  0  0  0  0  0  0
   13.7080   -3.1080   59.6440 C   0  0  0  0  0  0  0  0  0  0  0  0
   14.6730   -3.3440   58.6420 C   0  0  0  0  0  3  0  0  0  0  0  0
   15.5670   -4.4070   58.7300 C   0  0  0  0  0  3  0  0  0  0  0  0
   12.7320   -1.9480   59.5460 C   0  0  0  0  0  0  0  0  0  0  0  0
   13.1680   -0.6420   59.2010 C   0  0  0  0  0  3  0  0  0  0  0  0
   12.2690    0.4230   59.1120 C   0  0  0  0  0  3  0  0  0  0  0  0
   10.9160    0.2260   59.3630 C   0  0  0  0  0  3  0  0  0  0  0  0
   10.4500   -1.0430   59.7050 C   0  0  0  0  0  0  0  0  0  0  0  0
   11.3460   -2.1170   59.7970 C   0  0  0  0  0  3  0  0  0  0  0  0
    8.7020   -1.2910   60.0380 S   0  0  0  0  0  0  0  0  0  0  0  0
    8.5850   -1.9390   61.4260 O   0  0  0  0  0  0  0  0  0  0  0  0
    7.4200   -0.0140   59.9170 C   0  0  0  0  0  1  0  0  0  0  0  0
    8.2430   -2.4880   59.1930 O   0  0  0  0  0  0  0  0  0  0  0  0
   18.7960   -6.9990   58.9030 C   0  0  2  0  0  3  0  0  0  0  0  0
   19.5820   -6.6690   57.6370 C   0  0  0  0  0  0  0  0  0  0  0  0
   19.0190   -6.2080   56.4310 C   0  0  0  0  0  0  0  0  0  0  0  0
   17.5790   -5.9660   56.0890 C   0  0  0  0  0  1  0  0  0  0  0  0
   20.2520   -5.9470   55.3170 S   0  0  0  0  0  0  0  0  0  0  0  0
   21.5070   -6.3920   56.3340 C   0  0  0  0  0  0  0  0  0  0  0  0
   22.9550   -6.3860   55.9730 C   0  0  0  0  0  1  0  0  0  0  0  0
   20.9850   -6.7580   57.5640 C   0  0  0  0  0  3  0  0  0  0  0  0
   18.0590   -8.3560   58.7970 C   0  0  0  0  0  2  0  0  0  0  0  0
   18.7680   -9.5280   59.5150 C   0  0  0  0  0  2  0  0  0  0  0  0
   19.5770   -9.1480   60.7710 C   0  0  0  0  0  2  0  0  0  0  0  0
   19.9390  -10.3530   61.6390 C   0  0  0  0  0  1  0  0  0  0  0  0
  1 11  1  0  0  0  0
  1  2  1  0  0  0  0
  2  3  2  0  0  0  0
  2  4  2  0  0  0  0
  5  2  1  0  0  0  0
  5 10  1  0  0  0  0
  6  7  1  0  0  0  0
  6  5  2  0  0  0  0
  7  9  1  0  0  0  0
  8  7  1  0  0  0  0
  9 10  2  0  0  0  0
 11 12  1  0  0  0  0
 12 13  1  0  0  0  0
 13 14  1  0  0  0  0
 15 13  2  0  0  0  0
 16 15  1  0  0  0  0
 17 18  1  0  0  0  0
 17 16  2  0  0  0  0
 18 12  2  0  0  0  0
 19 16  1  0  0  0  0
 19 24  1  0  0  0  0
 20 19  2  0  0  0  0
 21 20  1  0  0  0  0
 21 22  2  0  0  0  0
 22 23  1  0  0  0  0
 23 24  2  0  0  0  0
 23 25  1  0  0  0  0
 25 26  2  0  0  0  0
 27 25  1  0  0  0  0
 28 25  2  0  0  0  0
 29 37  1  6  0  0  0
 29  1  1  0  0  0  0
 30 29  1  0  0  0  0
 31 30  2  0  0  0  0
 32 31  1  0  0  0  0
 33 34  1  0  0  0  0
 33 31  1  0  0  0  0
 34 36  2  0  0  0  0
 35 34  1  0  0  0  0
 36 30  1  0  0  0  0
 37 38  1  0  0  0  0
 38 39  1  0  0  0  0
 39 40  1  0  0  0  0
M  END
>  <POSE>
9

>  <SCORE>
-8.727

>  <RMSD_LB_BP>
2.398

>  <RMSD_UB_BP>
5.537

$$$$
