MODEL 1
REMARK VINA RESULT:    -9.952      0.000      0.000
REMARK INTER + INTRA:         -18.402
REMARK INTER:                 -16.901
REMARK INTRA:                  -1.501
REMARK UNBOUND:                -2.050
REMARK  11 active torsions:
REMARK  status: ('A' for Active; 'I' for Inactive)
REMARK    1  A    between atoms: C_3  and  C_2 
REMARK    2  A    between atoms: C_4  and  C_3 
REMARK    3  A    between atoms: C_5  and  C_4 
REMARK    4  A    between atoms: C_5  and  C_7 
REMARK    5  A    between atoms: C_5  and  N_6 
REMARK    6  A    between atoms: S_8  and  N_6 
REMARK    7  A    between atoms: N_6  and  C_9 
REMARK    8  A    between atoms: S_8  and  C_12 
REMARK    9  A    between atoms: C_9  and  C_20 
REMARK   10  A    between atoms: C_30  and  C_31 
REMARK   11  A    between atoms: C_35  and  S_37 
ROOT
ATOM      1  N   UNL d   1      18.039  -3.973  60.287  0.00  0.00    -0.192 NA
ENDROOT
BRANCH   1   2
ATOM      2  S   UNL d   1      18.329  -5.739  60.474  0.00  0.00     0.263 S 
ATOM      3  O   UNL d   1      16.925  -6.357  60.543  0.00  0.00    -0.204 OA
ATOM      4  O   UNL d   1      18.780  -5.965  61.923  0.00  0.00    -0.204 OA
BRANCH   2   5
ATOM      5  C   UNL d   1      19.328  -6.651  59.297  0.00  0.00     0.183 A 
ATOM      6  C   UNL d   1      19.976  -6.114  58.209  0.00  0.00     0.136 A 
ATOM      7  N   UNL d   1      20.607  -7.121  57.581  0.00  0.00    -0.353 N 
ATOM      8  C   UNL d   1      21.421  -7.033  56.376  0.00  0.00     0.156 C 
ATOM      9  C   UNL d   1      20.335  -8.235  58.286  0.00  0.00     0.210 A 
ATOM     10  N   UNL d   1      19.549  -7.979  59.351  0.00  0.00    -0.229 NA
ENDBRANCH   2   5
ENDBRANCH   1   2
BRANCH   1  11
ATOM     11  C   UNL d   1      17.361  -3.689  59.002  0.00  0.00     0.147 C 
BRANCH  11  12
ATOM     12  C   UNL d   1      15.908  -3.315  59.235  0.00  0.00    -0.038 A 
ATOM     13  C   UNL d   1      15.409  -1.988  59.311  0.00  0.00    -0.054 A 
ATOM     14  C   UNL d   1      16.256  -0.745  59.177  0.00  0.00     0.049 C 
ATOM     15  C   UNL d   1      14.033  -1.782  59.528  0.00  0.00     0.019 A 
ATOM     16  C   UNL d   1      13.120  -2.853  59.681  0.00  0.00    -0.025 A 
ATOM     17  C   UNL d   1      13.652  -4.158  59.607  0.00  0.00     0.013 A 
ATOM     18  C   UNL d   1      15.009  -4.379  59.389  0.00  0.00     0.010 A 
BRANCH  16  19
ATOM     19  C   UNL d   1      11.639  -2.614  59.919  0.00  0.00    -0.025 A 
ATOM     20  C   UNL d   1      10.805  -3.623  60.468  0.00  0.00     0.012 A 
ATOM     21  C   UNL d   1       9.444  -3.400  60.685  0.00  0.00     0.002 A 
ATOM     22  C   UNL d   1       8.870  -2.176  60.365  0.00  0.00     0.023 A 
ATOM     23  C   UNL d   1       9.657  -1.159  59.823  0.00  0.00     0.059 A 
ATOM     24  C   UNL d   1      11.024  -1.376  59.601  0.00  0.00     0.035 A 
BRANCH  23  25
ATOM     25  S   UNL d   1       8.909   0.418  59.402  0.00  0.00     0.171 S 
ATOM     26  O   UNL d   1       9.519   1.480  60.330  0.00  0.00    -0.223 OA
ATOM     27  C   UNL d   1       8.825   1.127  57.734  0.00  0.00     0.167 C 
ATOM     28  O   UNL d   1       7.484   0.414  59.974  0.00  0.00    -0.223 OA
ENDBRANCH  23  25
ENDBRANCH  16  19
ENDBRANCH  11  12
ENDBRANCH   1  11
BRANCH   1  29
ATOM     29  C   UNL d   1      19.187  -3.050  60.528  0.00  0.00     0.108 C 
BRANCH  29  30
ATOM     30  C   UNL d   1      19.404  -2.711  62.000  0.00  0.00    -0.026 A 
ATOM     31  C   UNL d   1      18.426  -2.177  62.861  0.00  0.00    -0.013 A 
ATOM     32  C   UNL d   1      17.007  -1.795  62.561  0.00  0.00     0.057 C 
ATOM     33  S   UNL d   1      19.092  -1.990  64.394  0.00  0.00    -0.100 SA
ATOM     34  C   UNL d   1      20.607  -2.588  64.004  0.00  0.00    -0.020 A 
ATOM     35  C   UNL d   1      21.751  -2.727  64.951  0.00  0.00     0.056 C 
ATOM     36  C   UNL d   1      20.623  -2.943  62.665  0.00  0.00     0.024 A 
ENDBRANCH  29  30
BRANCH  29  37
ATOM     37  C   UNL d   1      19.119  -1.784  59.639  0.00  0.00     0.026 C 
BRANCH  37  38
ATOM     38  C   UNL d   1      20.157  -1.747  58.495  0.00  0.00     0.002 C 
BRANCH  38  39
ATOM     39  C   UNL d   1      20.324  -0.387  57.789  0.00  0.00    -0.004 C 
ATOM     40  C   UNL d   1      21.785  -0.016  57.537  0.00  0.00     0.005 C 
ENDBRANCH  38  39
ENDBRANCH  37  38
ENDBRANCH  29  37
ENDBRANCH   1  29
TORSDOF 11
ENDMDL
MODEL 2
REMARK VINA RESULT:    -9.786      2.176      4.337
REMARK INTER + INTRA:         -18.129
REMARK INTER:                 -17.525
REMARK INTRA:                  -0.605
REMARK UNBOUND:                -2.050
REMARK  11 active torsions:
REMARK  status: ('A' for Active; 'I' for Inactive)
REMARK    1  A    between atoms: C_3  and  C_2 
REMARK    2  A    between atoms: C_4  and  C_3 
REMARK    3  A    between atoms: C_5  and  C_4 
REMARK    4  A    between atoms: C_5  and  C_7 
REMARK    5  A    between atoms: C_5  and  N_6 
REMARK    6  A    between atoms: S_8  and  N_6 
REMARK    7  A    between atoms: N_6  and  C_9 
REMARK    8  A    between atoms: S_8  and  C_12 
REMARK    9  A    between atoms: C_9  and  C_20 
REMARK   10  A    between atoms: C_30  and  C_31 
REMARK   11  A    between atoms: C_35  and  S_37 
ROOT
ATOM      1  N   UNL d   1      17.483  -2.537  60.124  0.00  0.00    -0.192 NA
ENDROOT
BRANCH   1   2
ATOM      2  S   UNL d   1      18.095  -1.717  61.605  0.00  0.00     0.263 S 
ATOM      3  O   UNL d   1      16.854  -1.540  62.491  0.00  0.00    -0.204 OA
ATOM      4  O   UNL d   1      18.353  -0.252  61.228  0.00  0.00    -0.204 OA
BRANCH   2   5
ATOM      5  C   UNL d   1      19.430  -2.417  62.576  0.00  0.00     0.183 A 
ATOM      6  C   UNL d   1      19.822  -1.991  63.824  0.00  0.00     0.136 A 
ATOM      7  N   UNL d   1      20.853  -2.764  64.206  0.00  0.00    -0.353 N 
ATOM      8  C   UNL d   1      21.597  -2.684  65.456  0.00  0.00     0.156 C 
ATOM      9  C   UNL d   1      21.067  -3.633  63.199  0.00  0.00     0.210 A 
ATOM     10  N   UNL d   1      20.206  -3.445  62.179  0.00  0.00    -0.229 NA
ENDBRANCH   2   5
ENDBRANCH   1   2
BRANCH   1  11
ATOM     11  C   UNL d   1      16.741  -3.767  60.479  0.00  0.00     0.147 C 
BRANCH  11  12
ATOM     12  C   UNL d   1      15.246  -3.555  60.321  0.00  0.00    -0.038 A 
ATOM     13  C   UNL d   1      14.242  -4.459  60.758  0.00  0.00    -0.054 A 
ATOM     14  C   UNL d   1      14.516  -5.776  61.444  0.00  0.00     0.049 C 
ATOM     15  C   UNL d   1      12.887  -4.136  60.551  0.00  0.00     0.019 A 
ATOM     16  C   UNL d   1      12.482  -2.939  59.912  0.00  0.00    -0.025 A 
ATOM     17  C   UNL d   1      13.505  -2.067  59.485  0.00  0.00     0.013 A 
ATOM     18  C   UNL d   1      14.849  -2.371  59.686  0.00  0.00     0.010 A 
BRANCH  16  19
ATOM     19  C   UNL d   1      11.016  -2.608  59.693  0.00  0.00    -0.025 A 
ATOM     20  C   UNL d   1      10.026  -3.624  59.648  0.00  0.00     0.012 A 
ATOM     21  C   UNL d   1       8.679  -3.317  59.446  0.00  0.00     0.002 A 
ATOM     22  C   UNL d   1       8.274  -1.997  59.280  0.00  0.00     0.023 A 
ATOM     23  C   UNL d   1       9.218  -0.971  59.318  0.00  0.00     0.059 A 
ATOM     24  C   UNL d   1      10.571  -1.272  59.519  0.00  0.00     0.035 A 
BRANCH  23  25
ATOM     25  S   UNL d   1       8.691   0.732  59.094  0.00  0.00     0.171 S 
ATOM     26  O   UNL d   1       9.435   1.584  60.133  0.00  0.00    -0.223 OA
ATOM     27  C   UNL d   1       8.711   1.638  57.523  0.00  0.00     0.167 C 
ATOM     28  O   UNL d   1       7.276   0.851  59.678  0.00  0.00    -0.223 OA
ENDBRANCH  23  25
ENDBRANCH  16  19
ENDBRANCH  11  12
ENDBRANCH   1  11
BRANCH   1  29
ATOM     29  C   UNL d   1      18.447  -2.769  59.008  0.00  0.00     0.108 C 
BRANCH  29  30
ATOM     30  C   UNL d   1      18.699  -4.245  58.713  0.00  0.00    -0.026 A 
ATOM     31  C   UNL d   1      18.850  -4.800  57.428  0.00  0.00    -0.013 A 
ATOM     32  C   UNL d   1      18.772  -4.127  56.090  0.00  0.00     0.057 C 
ATOM     33  S   UNL d   1      19.140  -6.450  57.577  0.00  0.00    -0.100 SA
ATOM     34  C   UNL d   1      19.097  -6.489  59.251  0.00  0.00    -0.020 A 
ATOM     35  C   UNL d   1      19.302  -7.703  60.093  0.00  0.00     0.056 C 
ATOM     36  C   UNL d   1      18.850  -5.211  59.727  0.00  0.00     0.024 A 
ENDBRANCH  29  30
BRANCH  29  37
ATOM     37  C   UNL d   1      19.764  -1.976  59.194  0.00  0.00     0.026 C 
BRANCH  37  38
ATOM     38  C   UNL d   1      19.880  -0.712  58.312  0.00  0.00     0.002 C 
BRANCH  38  39
ATOM     39  C   UNL d   1      21.100  -0.665  57.372  0.00  0.00    -0.004 C 
ATOM     40  C   UNL d   1      22.109   0.418  57.752  0.00  0.00     0.005 C 
ENDBRANCH  38  39
ENDBRANCH  37  38
ENDBRANCH  29  37
ENDBRANCH   1  29
TORSDOF 11
ENDMDL
MODEL 3
REMARK VINA RESULT:    -9.323      2.456      4.860
REMARK INTER + INTRA:         -17.368
REMARK INTER:                 -17.065
REMARK INTRA:                  -0.303
REMARK UNBOUND:                -2.050
REMARK  11 active torsions:
REMARK  status: ('A' for Active; 'I' for Inactive)
REMARK    1  A    between atoms: C_3  and  C_2 
REMARK    2  A    between atoms: C_4  and  C_3 
REMARK    3  A    between atoms: C_5  and  C_4 
REMARK    4  A    between atoms: C_5  and  C_7 
REMARK    5  A    between atoms: C_5  and  N_6 
REMARK    6  A    between atoms: S_8  and  N_6 
REMARK    7  A    between atoms: N_6  and  C_9 
REMARK    8  A    between atoms: S_8  and  C_12 
REMARK    9  A    between atoms: C_9  and  C_20 
REMARK   10  A    between atoms: C_30  and  C_31 
REMARK   11  A    between atoms: C_35  and  S_37 
ROOT
ATOM      1  N   UNL d   1      17.472  -4.420  58.496  0.00  0.00    -0.192 NA
ENDROOT
BRANCH   1   2
ATOM      2  S   UNL d   1      18.361  -3.031  59.214  0.00  0.00     0.263 S 
ATOM      3  O   UNL d   1      17.380  -1.854  59.122  0.00  0.00    -0.204 OA
ATOM      4  O   UNL d   1      19.398  -2.582  58.175  0.00  0.00    -0.204 OA
BRANCH   2   5
ATOM      5  C   UNL d   1      19.044  -3.113  60.870  0.00  0.00     0.183 A 
ATOM      6  C   UNL d   1      18.914  -2.147  61.840  0.00  0.00     0.136 A 
ATOM      7  N   UNL d   1      19.569  -2.582  62.929  0.00  0.00    -0.353 N 
ATOM      8  C   UNL d   1      19.707  -1.893  64.207  0.00  0.00     0.156 C 
ATOM      9  C   UNL d   1      20.080  -3.786  62.608  0.00  0.00     0.210 A 
ATOM     10  N   UNL d   1      19.773  -4.142  61.344  0.00  0.00    -0.229 NA
ENDBRANCH   2   5
ENDBRANCH   1   2
BRANCH   1  11
ATOM     11  C   UNL d   1      16.787  -5.201  59.551  0.00  0.00     0.147 C 
BRANCH  11  12
ATOM     12  C   UNL d   1      15.378  -4.681  59.773  0.00  0.00    -0.038 A 
ATOM     13  C   UNL d   1      14.544  -5.024  60.870  0.00  0.00    -0.054 A 
ATOM     14  C   UNL d   1      14.936  -5.968  61.981  0.00  0.00     0.049 C 
ATOM     15  C   UNL d   1      13.255  -4.464  60.956  0.00  0.00     0.019 A 
ATOM     16  C   UNL d   1      12.749  -3.570  59.981  0.00  0.00    -0.025 A 
ATOM     17  C   UNL d   1      13.602  -3.257  58.901  0.00  0.00     0.013 A 
ATOM     18  C   UNL d   1      14.880  -3.799  58.804  0.00  0.00     0.010 A 
BRANCH  16  19
ATOM     19  C   UNL d   1      11.355  -2.978  60.087  0.00  0.00    -0.025 A 
ATOM     20  C   UNL d   1      10.253  -3.754  60.532  0.00  0.00     0.012 A 
ATOM     21  C   UNL d   1       8.971  -3.208  60.628  0.00  0.00     0.002 A 
ATOM     22  C   UNL d   1       8.744  -1.880  60.285  0.00  0.00     0.023 A 
ATOM     23  C   UNL d   1       9.801  -1.086  59.843  0.00  0.00     0.059 A 
ATOM     24  C   UNL d   1      11.090  -1.627  59.743  0.00  0.00     0.035 A 
BRANCH  23  25
ATOM     25  S   UNL d   1       9.501   0.627  59.391  0.00  0.00     0.171 S 
ATOM     26  O   UNL d   1      10.482   0.985  58.265  0.00  0.00    -0.223 OA
ATOM     27  C   UNL d   1       7.886   1.330  58.959  0.00  0.00     0.167 C 
ATOM     28  O   UNL d   1      10.104   1.502  60.499  0.00  0.00    -0.223 OA
ENDBRANCH  23  25
ENDBRANCH  16  19
ENDBRANCH  11  12
ENDBRANCH   1  11
BRANCH   1  29
ATOM     29  C   UNL d   1      18.208  -5.299  57.541  0.00  0.00     0.108 C 
BRANCH  29  30
ATOM     30  C   UNL d   1      18.412  -6.724  58.050  0.00  0.00    -0.026 A 
ATOM     31  C   UNL d   1      18.144  -7.894  57.313  0.00  0.00    -0.013 A 
ATOM     32  C   UNL d   1      17.590  -8.034  55.927  0.00  0.00     0.057 C 
ATOM     33  S   UNL d   1      18.540  -9.232  58.251  0.00  0.00    -0.100 SA
ATOM     34  C   UNL d   1      19.066  -8.366  59.585  0.00  0.00    -0.020 A 
ATOM     35  C   UNL d   1      19.597  -8.959  60.847  0.00  0.00     0.056 C 
ATOM     36  C   UNL d   1      18.938  -7.011  59.324  0.00  0.00     0.024 A 
ENDBRANCH  29  30
BRANCH  29  37
ATOM     37  C   UNL d   1      19.530  -4.658  57.052  0.00  0.00     0.026 C 
BRANCH  37  38
ATOM     38  C   UNL d   1      20.385  -5.568  56.141  0.00  0.00     0.002 C 
BRANCH  38  39
ATOM     39  C   UNL d   1      21.770  -5.955  56.696  0.00  0.00    -0.004 C 
ATOM     40  C   UNL d   1      21.860  -7.421  57.119  0.00  0.00     0.005 C 
ENDBRANCH  38  39
ENDBRANCH  37  38
ENDBRANCH  29  37
ENDBRANCH   1  29
TORSDOF 11
ENDMDL
MODEL 4
REMARK VINA RESULT:    -9.204      2.016      3.539
REMARK INTER + INTRA:         -17.172
REMARK INTER:                 -15.936
REMARK INTRA:                  -1.237
REMARK UNBOUND:                -2.050
REMARK  11 active torsions:
REMARK  status: ('A' for Active; 'I' for Inactive)
REMARK    1  A    between atoms: C_3  and  C_2 
REMARK    2  A    between atoms: C_4  and  C_3 
REMARK    3  A    between atoms: C_5  and  C_4 
REMARK    4  A    between atoms: C_5  and  C_7 
REMARK    5  A    between atoms: C_5  and  N_6 
REMARK    6  A    between atoms: S_8  and  N_6 
REMARK    7  A    between atoms: N_6  and  C_9 
REMARK    8  A    between atoms: S_8  and  C_12 
REMARK    9  A    between atoms: C_9  and  C_20 
REMARK   10  A    between atoms: C_30  and  C_31 
REMARK   11  A    between atoms: C_35  and  S_37 
ROOT
ATOM      1  N   UNL d   1      15.745  -3.847  60.815  0.00  0.00    -0.192 NA
ENDROOT
BRANCH   1   2
ATOM      2  S   UNL d   1      16.115  -5.572  61.168  0.00  0.00     0.263 S 
ATOM      3  O   UNL d   1      14.764  -6.291  61.045  0.00  0.00    -0.204 OA
ATOM      4  O   UNL d   1      16.326  -5.680  62.684  0.00  0.00    -0.204 OA
BRANCH   2   5
ATOM      5  C   UNL d   1      17.359  -6.469  60.240  0.00  0.00     0.183 A 
ATOM      6  C   UNL d   1      17.215  -6.943  58.956  0.00  0.00     0.136 A 
ATOM      7  N   UNL d   1      18.363  -7.559  58.625  0.00  0.00    -0.353 N 
ATOM      8  C   UNL d   1      18.676  -8.217  57.363  0.00  0.00     0.156 C 
ATOM      9  C   UNL d   1      19.172  -7.451  59.696  0.00  0.00     0.210 A 
ATOM     10  N   UNL d   1      18.582  -6.784  60.709  0.00  0.00    -0.229 NA
ENDBRANCH   2   5
ENDBRANCH   1   2
BRANCH   1  11
ATOM     11  C   UNL d   1      15.100  -3.713  59.490  0.00  0.00     0.147 C 
BRANCH  11  12
ATOM     12  C   UNL d   1      13.768  -2.996  59.612  0.00  0.00    -0.038 A 
ATOM     13  C   UNL d   1      13.564  -1.608  59.391  0.00  0.00    -0.054 A 
ATOM     14  C   UNL d   1      14.652  -0.633  59.005  0.00  0.00     0.049 C 
ATOM     15  C   UNL d   1      12.271  -1.070  59.535  0.00  0.00     0.019 A 
ATOM     16  C   UNL d   1      11.156  -1.863  59.903  0.00  0.00    -0.025 A 
ATOM     17  C   UNL d   1      11.396  -3.236  60.121  0.00  0.00     0.013 A 
ATOM     18  C   UNL d   1      12.668  -3.783  59.979  0.00  0.00     0.010 A 
BRANCH  16  19
ATOM     19  C   UNL d   1       9.768  -1.266  60.059  0.00  0.00    -0.025 A 
ATOM     20  C   UNL d   1       8.857  -1.758  61.030  0.00  0.00     0.012 A 
ATOM     21  C   UNL d   1       7.581  -1.208  61.171  0.00  0.00     0.002 A 
ATOM     22  C   UNL d   1       7.171  -0.159  60.357  0.00  0.00     0.023 A 
ATOM     23  C   UNL d   1       8.039   0.351  59.391  0.00  0.00     0.059 A 
ATOM     24  C   UNL d   1       9.320  -0.196  59.242  0.00  0.00     0.035 A 
BRANCH  23  25
ATOM     25  S   UNL d   1       7.502   1.701  58.334  0.00  0.00     0.171 S 
ATOM     26  O   UNL d   1       7.457   2.971  59.196  0.00  0.00    -0.223 OA
ATOM     27  C   UNL d   1       8.243   2.143  56.739  0.00  0.00     0.167 C 
ATOM     28  O   UNL d   1       5.992   1.530  58.110  0.00  0.00    -0.223 OA
ENDBRANCH  23  25
ENDBRANCH  16  19
ENDBRANCH  11  12
ENDBRANCH   1  11
BRANCH   1  29
ATOM     29  C   UNL d   1      16.836  -2.847  61.008  0.00  0.00     0.108 C 
BRANCH  29  30
ATOM     30  C   UNL d   1      17.678  -2.609  59.758  0.00  0.00    -0.026 A 
ATOM     31  C   UNL d   1      18.222  -1.369  59.371  0.00  0.00    -0.013 A 
ATOM     32  C   UNL d   1      18.093  -0.030  60.033  0.00  0.00     0.057 C 
ATOM     33  S   UNL d   1      19.099  -1.577  57.951  0.00  0.00    -0.100 SA
ATOM     34  C   UNL d   1      18.824  -3.224  57.811  0.00  0.00    -0.020 A 
ATOM     35  C   UNL d   1      19.351  -4.099  56.724  0.00  0.00     0.056 C 
ATOM     36  C   UNL d   1      18.036  -3.643  58.871  0.00  0.00     0.024 A 
ENDBRANCH  29  30
BRANCH  29  37
ATOM     37  C   UNL d   1      17.707  -3.160  62.250  0.00  0.00     0.026 C 
BRANCH  37  38
ATOM     38  C   UNL d   1      17.891  -1.971  63.220  0.00  0.00     0.002 C 
BRANCH  38  39
ATOM     39  C   UNL d   1      19.195  -1.975  64.040  0.00  0.00    -0.004 C 
ATOM     40  C   UNL d   1      20.304  -2.810  63.401  0.00  0.00     0.005 C 
ENDBRANCH  38  39
ENDBRANCH  37  38
ENDBRANCH  29  37
ENDBRANCH   1  29
TORSDOF 11
ENDMDL
MODEL 5
REMARK VINA RESULT:    -9.076      1.462      3.197
REMARK INTER + INTRA:         -16.962
REMARK INTER:                 -16.739
REMARK INTRA:                  -0.222
REMARK UNBOUND:                -2.050
REMARK  11 active torsions:
REMARK  status: ('A' for Active; 'I' for Inactive)
REMARK    1  A    between atoms: C_3  and  C_2 
REMARK    2  A    between atoms: C_4  and  C_3 
REMARK    3  A    between atoms: C_5  and  C_4 
REMARK    4  A    between atoms: C_5  and  C_7 
REMARK    5  A    between atoms: C_5  and  N_6 
REMARK    6  A    between atoms: S_8  and  N_6 
REMARK    7  A    between atoms: N_6  and  C_9 
REMARK    8  A    between atoms: S_8  and  C_12 
REMARK    9  A    between atoms: C_9  and  C_20 
REMARK   10  A    between atoms: C_30  and  C_31 
REMARK   11  A    between atoms: C_35  and  S_37 
ROOT
ATOM      1  N   UNL d   1      17.269  -4.656  60.353  0.00  0.00    -0.192 NA
ENDROOT
BRANCH   1   2
ATOM      2  S   UNL d   1      18.796  -5.572  60.096  0.00  0.00     0.263 S 
ATOM      3  O   UNL d   1      18.526  -6.955  60.707  0.00  0.00    -0.204 OA
ATOM      4  O   UNL d   1      19.813  -5.037  61.112  0.00  0.00    -0.204 OA
BRANCH   2   5
ATOM      5  C   UNL d   1      19.504  -5.768  58.460  0.00  0.00     0.183 A 
ATOM      6  C   UNL d   1      20.322  -6.799  58.058  0.00  0.00     0.136 A 
ATOM      7  N   UNL d   1      20.640  -6.579  56.772  0.00  0.00    -0.353 N 
ATOM      8  C   UNL d   1      21.489  -7.405  55.922  0.00  0.00     0.156 C 
ATOM      9  C   UNL d   1      20.021  -5.437  56.418  0.00  0.00     0.210 A 
ATOM     10  N   UNL d   1      19.311  -4.912  57.437  0.00  0.00    -0.229 NA
ENDBRANCH   2   5
ENDBRANCH   1   2
BRANCH   1  11
ATOM     11  C   UNL d   1      16.428  -4.693  59.136  0.00  0.00     0.147 C 
BRANCH  11  12
ATOM     12  C   UNL d   1      15.009  -4.257  59.452  0.00  0.00    -0.038 A 
ATOM     13  C   UNL d   1      14.254  -4.687  60.576  0.00  0.00    -0.054 A 
ATOM     14  C   UNL d   1      14.753  -5.653  61.624  0.00  0.00     0.049 C 
ATOM     15  C   UNL d   1      12.944  -4.201  60.752  0.00  0.00     0.019 A 
ATOM     16  C   UNL d   1      12.341  -3.298  59.844  0.00  0.00    -0.025 A 
ATOM     17  C   UNL d   1      13.117  -2.897  58.735  0.00  0.00     0.013 A 
ATOM     18  C   UNL d   1      14.415  -3.366  58.549  0.00  0.00     0.010 A 
BRANCH  16  19
ATOM     19  C   UNL d   1      10.926  -2.786  60.046  0.00  0.00    -0.025 A 
ATOM     20  C   UNL d   1       9.941  -3.571  60.701  0.00  0.00     0.012 A 
ATOM     21  C   UNL d   1       8.641  -3.098  60.886  0.00  0.00     0.002 A 
ATOM     22  C   UNL d   1       8.277  -1.838  60.427  0.00  0.00     0.023 A 
ATOM     23  C   UNL d   1       9.216  -1.037  59.778  0.00  0.00     0.059 A 
ATOM     24  C   UNL d   1      10.524  -1.505  59.588  0.00  0.00     0.035 A 
BRANCH  23  25
ATOM     25  S   UNL d   1       8.740   0.588  59.178  0.00  0.00     0.171 S 
ATOM     26  O   UNL d   1       9.360   1.628  60.123  0.00  0.00    -0.223 OA
ATOM     27  C   UNL d   1       8.960   1.185  57.480  0.00  0.00     0.167 C 
ATOM     28  O   UNL d   1       7.265   0.797  59.554  0.00  0.00    -0.223 OA
ENDBRANCH  23  25
ENDBRANCH  16  19
ENDBRANCH  11  12
ENDBRANCH   1  11
BRANCH   1  29
ATOM     29  C   UNL d   1      17.371  -3.279  60.920  0.00  0.00     0.108 C 
BRANCH  29  30
ATOM     30  C   UNL d   1      17.853  -2.237  59.915  0.00  0.00    -0.026 A 
ATOM     31  C   UNL d   1      17.064  -1.201  59.379  0.00  0.00    -0.013 A 
ATOM     32  C   UNL d   1      15.616  -0.892  59.619  0.00  0.00     0.057 C 
ATOM     33  S   UNL d   1      18.009  -0.276  58.339  0.00  0.00    -0.100 SA
ATOM     34  C   UNL d   1      19.421  -1.149  58.558  0.00  0.00    -0.020 A 
ATOM     35  C   UNL d   1      20.731  -0.852  57.908  0.00  0.00     0.056 C 
ATOM     36  C   UNL d   1      19.180  -2.185  59.447  0.00  0.00     0.024 A 
ENDBRANCH  29  30
BRANCH  29  37
ATOM     37  C   UNL d   1      18.185  -3.244  62.236  0.00  0.00     0.026 C 
BRANCH  37  38
ATOM     38  C   UNL d   1      17.898  -2.019  63.135  0.00  0.00     0.002 C 
BRANCH  38  39
ATOM     39  C   UNL d   1      18.953  -1.726  64.219  0.00  0.00    -0.004 C 
ATOM     40  C   UNL d   1      20.255  -2.499  64.015  0.00  0.00     0.005 C 
ENDBRANCH  38  39
ENDBRANCH  37  38
ENDBRANCH  29  37
ENDBRANCH   1  29
TORSDOF 11
ENDMDL
MODEL 6
REMARK VINA RESULT:    -9.071      1.772      4.282
REMARK INTER + INTRA:         -16.954
REMARK INTER:                 -15.307
REMARK INTRA:                  -1.648
REMARK UNBOUND:                -2.050
REMARK  11 active torsions:
REMARK  status: ('A' for Active; 'I' for Inactive)
REMARK    1  A    between atoms: C_3  and  C_2 
REMARK    2  A    between atoms: C_4  and  C_3 
REMARK    3  A    between atoms: C_5  and  C_4 
REMARK    4  A    between atoms: C_5  and  C_7 
REMARK    5  A    between atoms: C_5  and  N_6 
REMARK    6  A    between atoms: S_8  and  N_6 
REMARK    7  A    between atoms: N_6  and  C_9 
REMARK    8  A    between atoms: S_8  and  C_12 
REMARK    9  A    between atoms: C_9  and  C_20 
REMARK   10  A    between atoms: C_30  and  C_31 
REMARK   11  A    between atoms: C_35  and  S_37 
ROOT
ATOM      1  N   UNL d   1      17.673  -4.416  59.681  0.00  0.00    -0.192 NA
ENDROOT
BRANCH   1   2
ATOM      2  S   UNL d   1      18.637  -4.885  61.126  0.00  0.00     0.263 S 
ATOM      3  O   UNL d   1      19.861  -5.614  60.555  0.00  0.00    -0.204 OA
ATOM      4  O   UNL d   1      17.913  -6.071  61.778  0.00  0.00    -0.204 OA
BRANCH   2   5
ATOM      5  C   UNL d   1      19.172  -3.666  62.328  0.00  0.00     0.183 A 
ATOM      6  C   UNL d   1      20.382  -3.663  62.983  0.00  0.00     0.136 A 
ATOM      7  N   UNL d   1      20.393  -2.595  63.798  0.00  0.00    -0.353 N 
ATOM      8  C   UNL d   1      21.467  -2.183  64.693  0.00  0.00     0.156 C 
ATOM      9  C   UNL d   1      19.209  -1.977  63.628  0.00  0.00     0.210 A 
ATOM     10  N   UNL d   1      18.433  -2.613  62.728  0.00  0.00    -0.229 NA
ENDBRANCH   2   5
ENDBRANCH   1   2
BRANCH   1  11
ATOM     11  C   UNL d   1      16.620  -5.420  59.410  0.00  0.00     0.147 C 
BRANCH  11  12
ATOM     12  C   UNL d   1      15.243  -4.837  59.675  0.00  0.00    -0.038 A 
ATOM     13  C   UNL d   1      14.462  -5.083  60.835  0.00  0.00    -0.054 A 
ATOM     14  C   UNL d   1      14.886  -5.972  61.980  0.00  0.00     0.049 C 
ATOM     15  C   UNL d   1      13.198  -4.473  60.957  0.00  0.00     0.019 A 
ATOM     16  C   UNL d   1      12.667  -3.623  59.957  0.00  0.00    -0.025 A 
ATOM     17  C   UNL d   1      13.467  -3.406  58.815  0.00  0.00     0.013 A 
ATOM     18  C   UNL d   1      14.720  -3.998  58.682  0.00  0.00     0.010 A 
BRANCH  16  19
ATOM     19  C   UNL d   1      11.301  -2.977  60.101  0.00  0.00    -0.025 A 
ATOM     20  C   UNL d   1      10.190  -3.700  60.608  0.00  0.00     0.012 A 
ATOM     21  C   UNL d   1       8.934  -3.103  60.739  0.00  0.00     0.002 A 
ATOM     22  C   UNL d   1       8.742  -1.776  60.372  0.00  0.00     0.023 A 
ATOM     23  C   UNL d   1       9.810  -1.033  59.869  0.00  0.00     0.059 A 
ATOM     24  C   UNL d   1      11.073  -1.625  59.734  0.00  0.00     0.035 A 
BRANCH  23  25
ATOM     25  S   UNL d   1       9.555   0.678  59.387  0.00  0.00     0.171 S 
ATOM     26  O   UNL d   1      10.551   0.993  58.260  0.00  0.00    -0.223 OA
ATOM     27  C   UNL d   1       7.961   1.415  58.933  0.00  0.00     0.167 C 
ATOM     28  O   UNL d   1      10.174   1.558  60.484  0.00  0.00    -0.223 OA
ENDBRANCH  23  25
ENDBRANCH  16  19
ENDBRANCH  11  12
ENDBRANCH   1  11
BRANCH   1  29
ATOM     29  C   UNL d   1      18.414  -4.037  58.443  0.00  0.00     0.108 C 
BRANCH  29  30
ATOM     30  C   UNL d   1      18.809  -2.563  58.391  0.00  0.00    -0.026 A 
ATOM     31  C   UNL d   1      18.002  -1.493  58.825  0.00  0.00    -0.013 A 
ATOM     32  C   UNL d   1      16.613  -1.521  59.388  0.00  0.00     0.057 C 
ATOM     33  S   UNL d   1      18.845  -0.053  58.609  0.00  0.00    -0.100 SA
ATOM     34  C   UNL d   1      20.234  -0.751  57.985  0.00  0.00    -0.020 A 
ATOM     35  C   UNL d   1      21.460  -0.011  57.567  0.00  0.00     0.056 C 
ATOM     36  C   UNL d   1      20.065  -2.125  57.930  0.00  0.00     0.024 A 
ENDBRANCH  29  30
BRANCH  29  37
ATOM     37  C   UNL d   1      17.682  -4.492  57.157  0.00  0.00     0.026 C 
BRANCH  37  38
ATOM     38  C   UNL d   1      18.460  -5.522  56.307  0.00  0.00     0.002 C 
BRANCH  38  39
ATOM     39  C   UNL d   1      19.926  -5.755  56.719  0.00  0.00    -0.004 C 
ATOM     40  C   UNL d   1      20.710  -6.588  55.706  0.00  0.00     0.005 C 
ENDBRANCH  38  39
ENDBRANCH  37  38
ENDBRANCH  29  37
ENDBRANCH   1  29
TORSDOF 11
ENDMDL
MODEL 7
REMARK VINA RESULT:    -8.952      1.803      4.602
REMARK INTER + INTRA:         -16.759
REMARK INTER:                 -16.356
REMARK INTRA:                  -0.403
REMARK UNBOUND:                -2.050
REMARK  11 active torsions:
REMARK  status: ('A' for Active; 'I' for Inactive)
REMARK    1  A    between atoms: C_3  and  C_2 
REMARK    2  A    between atoms: C_4  and  C_3 
REMARK    3  A    between atoms: C_5  and  C_4 
REMARK    4  A    between atoms: C_5  and  C_7 
REMARK    5  A    between atoms: C_5  and  N_6 
REMARK    6  A    between atoms: S_8  and  N_6 
REMARK    7  A    between atoms: N_6  and  C_9 
REMARK    8  A    between atoms: S_8  and  C_12 
REMARK    9  A    between atoms: C_9  and  C_20 
REMARK   10  A    between atoms: C_30  and  C_31 
REMARK   11  A    between atoms: C_35  and  S_37 
ROOT
ATOM      1  N   UNL d   1      17.659  -3.971  59.976  0.00  0.00    -0.192 NA
ENDROOT
BRANCH   1   2
ATOM      2  S   UNL d   1      18.556  -4.521  61.435  0.00  0.00     0.263 S 
ATOM      3  O   UNL d   1      19.757  -5.300  60.880  0.00  0.00    -0.204 OA
ATOM      4  O   UNL d   1      17.754  -5.682  62.038  0.00  0.00    -0.204 OA
BRANCH   2   5
ATOM      5  C   UNL d   1      19.117  -3.359  62.680  0.00  0.00     0.183 A 
ATOM      6  C   UNL d   1      20.378  -3.320  63.229  0.00  0.00     0.136 A 
ATOM      7  N   UNL d   1      20.395  -2.315  64.121  0.00  0.00    -0.353 N 
ATOM      8  C   UNL d   1      21.517  -1.896  64.952  0.00  0.00     0.156 C 
ATOM      9  C   UNL d   1      19.164  -1.770  64.100  0.00  0.00     0.210 A 
ATOM     10  N   UNL d   1      18.352  -2.391  63.221  0.00  0.00    -0.229 NA
ENDBRANCH   2   5
ENDBRANCH   1   2
BRANCH   1  11
ATOM     11  C   UNL d   1      16.680  -4.995  59.549  0.00  0.00     0.147 C 
BRANCH  11  12
ATOM     12  C   UNL d   1      15.260  -4.497  59.750  0.00  0.00    -0.038 A 
ATOM     13  C   UNL d   1      14.377  -4.935  60.772  0.00  0.00    -0.054 A 
ATOM     14  C   UNL d   1      14.721  -5.974  61.813  0.00  0.00     0.049 C 
ATOM     15  C   UNL d   1      13.083  -4.385  60.847  0.00  0.00     0.019 A 
ATOM     16  C   UNL d   1      12.620  -3.409  59.932  0.00  0.00    -0.025 A 
ATOM     17  C   UNL d   1      13.520  -3.001  58.925  0.00  0.00     0.013 A 
ATOM     18  C   UNL d   1      14.804  -3.533  58.840  0.00  0.00     0.010 A 
BRANCH  16  19
ATOM     19  C   UNL d   1      11.219  -2.829  60.024  0.00  0.00    -0.025 A 
ATOM     20  C   UNL d   1      10.122  -3.610  60.472  0.00  0.00     0.012 A 
ATOM     21  C   UNL d   1       8.835  -3.074  60.555  0.00  0.00     0.002 A 
ATOM     22  C   UNL d   1       8.597  -1.753  60.197  0.00  0.00     0.023 A 
ATOM     23  C   UNL d   1       9.650  -0.953  59.752  0.00  0.00     0.059 A 
ATOM     24  C   UNL d   1      10.944  -1.484  59.665  0.00  0.00     0.035 A 
BRANCH  23  25
ATOM     25  S   UNL d   1       9.337   0.752  59.281  0.00  0.00     0.171 S 
ATOM     26  O   UNL d   1      10.279   1.088  58.115  0.00  0.00    -0.223 OA
ATOM     27  C   UNL d   1       7.708   1.451  58.893  0.00  0.00     0.167 C 
ATOM     28  O   UNL d   1       9.979   1.646  60.353  0.00  0.00    -0.223 OA
ENDBRANCH  23  25
ENDBRANCH  16  19
ENDBRANCH  11  12
ENDBRANCH   1  11
BRANCH   1  29
ATOM     29  C   UNL d   1      18.453  -3.445  58.827  0.00  0.00     0.108 C 
BRANCH  29  30
ATOM     30  C   UNL d   1      19.023  -4.537  57.925  0.00  0.00    -0.026 A 
ATOM     31  C   UNL d   1      19.022  -4.507  56.517  0.00  0.00    -0.013 A 
ATOM     32  C   UNL d   1      18.462  -3.468  55.591  0.00  0.00     0.057 C 
ATOM     33  S   UNL d   1      19.775  -5.897  55.941  0.00  0.00    -0.100 SA
ATOM     34  C   UNL d   1      20.126  -6.545  57.445  0.00  0.00    -0.020 A 
ATOM     35  C   UNL d   1      20.839  -7.833  57.686  0.00  0.00     0.056 C 
ATOM     36  C   UNL d   1      19.657  -5.689  58.428  0.00  0.00     0.024 A 
ENDBRANCH  29  30
BRANCH  29  37
ATOM     37  C   UNL d   1      19.535  -2.432  59.275  0.00  0.00     0.026 C 
BRANCH  37  38
ATOM     38  C   UNL d   1      19.570  -1.126  58.450  0.00  0.00     0.002 C 
BRANCH  38  39
ATOM     39  C   UNL d   1      18.198  -0.498  58.137  0.00  0.00    -0.004 C 
ATOM     40  C   UNL d   1      17.436  -0.065  59.389  0.00  0.00     0.005 C 
ENDBRANCH  38  39
ENDBRANCH  37  38
ENDBRANCH  29  37
ENDBRANCH   1  29
TORSDOF 11
ENDMDL
MODEL 8
REMARK VINA RESULT:    -8.769      2.113      3.132
REMARK INTER + INTRA:         -16.457
REMARK INTER:                 -17.107
REMARK INTRA:                   0.650
REMARK UNBOUND:                -2.050
REMARK  11 active torsions:
REMARK  status: ('A' for Active; 'I' for Inactive)
REMARK    1  A    between atoms: C_3  and  C_2 
REMARK    2  A    between atoms: C_4  and  C_3 
REMARK    3  A    between atoms: C_5  and  C_4 
REMARK    4  A    between atoms: C_5  and  C_7 
REMARK    5  A    between atoms: C_5  and  N_6 
REMARK    6  A    between atoms: S_8  and  N_6 
REMARK    7  A    between atoms: N_6  and  C_9 
REMARK    8  A    between atoms: S_8  and  C_12 
REMARK    9  A    between atoms: C_9  and  C_20 
REMARK   10  A    between atoms: C_30  and  C_31 
REMARK   11  A    between atoms: C_35  and  S_37 
ROOT
ATOM      1  N   UNL d   1      17.630  -3.898  59.787  0.00  0.00    -0.192 NA
ENDROOT
BRANCH   1   2
ATOM      2  S   UNL d   1      18.561  -3.620  58.273  0.00  0.00     0.263 S 
ATOM      3  O   UNL d   1      19.814  -2.856  58.723  0.00  0.00    -0.204 OA
ATOM      4  O   UNL d   1      17.841  -2.503  57.506  0.00  0.00    -0.204 OA
BRANCH   2   5
ATOM      5  C   UNL d   1      19.039  -4.982  57.208  0.00  0.00     0.183 A 
ATOM      6  C   UNL d   1      20.318  -5.255  56.781  0.00  0.00     0.136 A 
ATOM      7  N   UNL d   1      20.255  -6.346  56.000  0.00  0.00    -0.353 N 
ATOM      8  C   UNL d   1      21.363  -7.006  55.320  0.00  0.00     0.156 C 
ATOM      9  C   UNL d   1      18.960  -6.712  55.965  0.00  0.00     0.210 A 
ATOM     10  N   UNL d   1      18.183  -5.890  56.700  0.00  0.00    -0.229 NA
ENDBRANCH   2   5
ENDBRANCH   1   2
BRANCH   1  11
ATOM     11  C   UNL d   1      17.058  -2.627  60.287  0.00  0.00     0.147 C 
BRANCH  11  12
ATOM     12  C   UNL d   1      15.546  -2.629  60.148  0.00  0.00    -0.038 A 
ATOM     13  C   UNL d   1      14.696  -3.716  60.482  0.00  0.00    -0.054 A 
ATOM     14  C   UNL d   1      15.175  -5.043  61.023  0.00  0.00     0.049 C 
ATOM     15  C   UNL d   1      13.305  -3.583  60.307  0.00  0.00     0.019 A 
ATOM     16  C   UNL d   1      12.715  -2.400  59.800  0.00  0.00    -0.025 A 
ATOM     17  C   UNL d   1      13.589  -1.342  59.472  0.00  0.00     0.013 A 
ATOM     18  C   UNL d   1      14.966  -1.457  59.643  0.00  0.00     0.010 A 
BRANCH  16  19
ATOM     19  C   UNL d   1      11.213  -2.273  59.613  0.00  0.00    -0.025 A 
ATOM     20  C   UNL d   1      10.365  -3.411  59.644  0.00  0.00     0.012 A 
ATOM     21  C   UNL d   1       8.984  -3.292  59.471  0.00  0.00     0.002 A 
ATOM     22  C   UNL d   1       8.405  -2.046  59.262  0.00  0.00     0.023 A 
ATOM     23  C   UNL d   1       9.206  -0.904  59.226  0.00  0.00     0.059 A 
ATOM     24  C   UNL d   1      10.592  -1.016  59.397  0.00  0.00     0.035 A 
BRANCH  23  25
ATOM     25  S   UNL d   1       8.454   0.703  58.946  0.00  0.00     0.171 S 
ATOM     26  O   UNL d   1       9.091   1.688  59.938  0.00  0.00    -0.223 OA
ATOM     27  C   UNL d   1       8.331   1.539  57.341  0.00  0.00     0.167 C 
ATOM     28  O   UNL d   1       7.043   0.657  59.551  0.00  0.00    -0.223 OA
ENDBRANCH  23  25
ENDBRANCH  16  19
ENDBRANCH  11  12
ENDBRANCH   1  11
BRANCH   1  29
ATOM     29  C   UNL d   1      18.286  -4.680  60.875  0.00  0.00     0.108 C 
BRANCH  29  30
ATOM     30  C   UNL d   1      19.038  -3.816  61.884  0.00  0.00    -0.026 A 
ATOM     31  C   UNL d   1      18.438  -2.914  62.785  0.00  0.00    -0.013 A 
ATOM     32  C   UNL d   1      16.989  -2.566  62.953  0.00  0.00     0.057 C 
ATOM     33  S   UNL d   1      19.638  -2.202  63.724  0.00  0.00    -0.100 SA
ATOM     34  C   UNL d   1      20.921  -3.023  63.028  0.00  0.00    -0.020 A 
ATOM     35  C   UNL d   1      22.354  -2.875  63.414  0.00  0.00     0.056 C 
ATOM     36  C   UNL d   1      20.436  -3.869  62.043  0.00  0.00     0.024 A 
ENDBRANCH  29  30
BRANCH  29  37
ATOM     37  C   UNL d   1      19.162  -5.832  60.324  0.00  0.00     0.026 C 
BRANCH  37  38
ATOM     38  C   UNL d   1      18.411  -7.168  60.124  0.00  0.00     0.002 C 
BRANCH  38  39
ATOM     39  C   UNL d   1      19.241  -8.314  59.513  0.00  0.00    -0.004 C 
ATOM     40  C   UNL d   1      18.430  -9.213  58.582  0.00  0.00     0.005 C 
ENDBRANCH  38  39
ENDBRANCH  37  38
ENDBRANCH  29  37
ENDBRANCH   1  29
TORSDOF 11
ENDMDL
MODEL 9
REMARK VINA RESULT:    -8.727      2.398      5.537
REMARK INTER + INTRA:         -16.389
REMARK INTER:                 -14.339
REMARK INTRA:                  -2.050
REMARK UNBOUND:                -2.050
REMARK  11 active torsions:
REMARK  status: ('A' for Active; 'I' for Inactive)
REMARK    1  A    between atoms: C_3  and  C_2 
REMARK    2  A    between atoms: C_4  and  C_3 
REMARK    3  A    between atoms: C_5  and  C_4 
REMARK    4  A    between atoms: C_5  and  C_7 
REMARK    5  A    between atoms: C_5  and  N_6 
REMARK    6  A    between atoms: S_8  and  N_6 
REMARK    7  A    between atoms: N_6  and  C_9 
REMARK    8  A    between atoms: S_8  and  C_12 
REMARK    9  A    between atoms: C_9  and  C_20 
REMARK   10  A    between atoms: C_30  and  C_31 
REMARK   11  A    between atoms: C_35  and  S_37 
ROOT
ATOM      1  N   UNL d   1      17.894  -5.898  59.353  0.00  0.00    -0.192 NA
ENDROOT
BRANCH   1   2
ATOM      2  S   UNL d   1      18.544  -4.712  60.540  0.00  0.00     0.263 S 
ATOM      3  O   UNL d   1      19.982  -5.179  60.806  0.00  0.00    -0.204 OA
ATOM      4  O   UNL d   1      17.910  -5.048  61.897  0.00  0.00    -0.204 OA
BRANCH   2   5
ATOM      5  C   UNL d   1      18.538  -2.952  60.200  0.00  0.00     0.183 A 
ATOM      6  C   UNL d   1      18.269  -2.371  58.982  0.00  0.00     0.136 A 
ATOM      7  N   UNL d   1      18.371  -1.041  59.141  0.00  0.00    -0.353 N 
ATOM      8  C   UNL d   1      18.174  -0.016  58.124  0.00  0.00     0.156 C 
ATOM      9  C   UNL d   1      18.697  -0.838  60.432  0.00  0.00     0.210 A 
ATOM     10  N   UNL d   1      18.807  -1.997  61.112  0.00  0.00    -0.229 NA
ENDBRANCH   2   5
ENDBRANCH   1   2
BRANCH   1  11
ATOM     11  C   UNL d   1      16.577  -6.409  59.795  0.00  0.00     0.147 C 
BRANCH  11  12
ATOM     12  C   UNL d   1      15.549  -5.292  59.817  0.00  0.00    -0.038 A 
ATOM     13  C   UNL d   1      14.586  -5.088  60.841  0.00  0.00    -0.054 A 
ATOM     14  C   UNL d   1      14.438  -5.963  62.063  0.00  0.00     0.049 C 
ATOM     15  C   UNL d   1      13.691  -4.006  60.739  0.00  0.00     0.019 A 
ATOM     16  C   UNL d   1      13.708  -3.108  59.644  0.00  0.00    -0.025 A 
ATOM     17  C   UNL d   1      14.673  -3.344  58.642  0.00  0.00     0.013 A 
ATOM     18  C   UNL d   1      15.567  -4.407  58.730  0.00  0.00     0.010 A 
BRANCH  16  19
ATOM     19  C   UNL d   1      12.732  -1.948  59.546  0.00  0.00    -0.025 A 
ATOM     20  C   UNL d   1      13.168  -0.642  59.201  0.00  0.00     0.012 A 
ATOM     21  C   UNL d   1      12.269   0.423  59.112  0.00  0.00     0.002 A 
ATOM     22  C   UNL d   1      10.916   0.226  59.363  0.00  0.00     0.023 A 
ATOM     23  C   UNL d   1      10.450  -1.043  59.705  0.00  0.00     0.059 A 
ATOM     24  C   UNL d   1      11.346  -2.117  59.797  0.00  0.00     0.035 A 
BRANCH  23  25
ATOM     25  S   UNL d   1       8.702  -1.291  60.038  0.00  0.00     0.171 S 
ATOM     26  O   UNL d   1       8.585  -1.939  61.426  0.00  0.00    -0.223 OA
ATOM     27  C   UNL d   1       7.420  -0.014  59.917  0.00  0.00     0.167 C 
ATOM     28  O   UNL d   1       8.243  -2.488  59.193  0.00  0.00    -0.223 OA
ENDBRANCH  23  25
ENDBRANCH  16  19
ENDBRANCH  11  12
ENDBRANCH   1  11
BRANCH   1  29
ATOM     29  C   UNL d   1      18.796  -6.999  58.903  0.00  0.00     0.108 C 
BRANCH  29  30
ATOM     30  C   UNL d   1      19.582  -6.669  57.637  0.00  0.00    -0.026 A 
ATOM     31  C   UNL d   1      19.019  -6.208  56.431  0.00  0.00    -0.013 A 
ATOM     32  C   UNL d   1      17.579  -5.966  56.089  0.00  0.00     0.057 C 
ATOM     33  S   UNL d   1      20.252  -5.947  55.317  0.00  0.00    -0.100 SA
ATOM     34  C   UNL d   1      21.507  -6.392  56.334  0.00  0.00    -0.020 A 
ATOM     35  C   UNL d   1      22.955  -6.386  55.973  0.00  0.00     0.056 C 
ATOM     36  C   UNL d   1      20.985  -6.758  57.564  0.00  0.00     0.024 A 
ENDBRANCH  29  30
BRANCH  29  37
ATOM     37  C   UNL d   1      18.059  -8.356  58.797  0.00  0.00     0.026 C 
BRANCH  37  38
ATOM     38  C   UNL d   1      18.768  -9.528  59.515  0.00  0.00     0.002 C 
BRANCH  38  39
ATOM     39  C   UNL d   1      19.577  -9.148  60.771  0.00  0.00    -0.004 C 
ATOM     40  C   UNL d   1      19.939 -10.353  61.639  0.00  0.00     0.005 C 
ENDBRANCH  38  39
ENDBRANCH  37  38
ENDBRANCH  29  37
ENDBRANCH   1  29
TORSDOF 11
ENDMDL
