MODEL 1
REMARK VINA RESULT:   -12.902      0.000      0.000
REMARK INTER + INTRA:         -18.507
REMARK INTER:                 -17.285
REMARK INTRA:                  -1.221
REMARK UNBOUND:                 1.184
REMARK  9 active torsions:
REMARK  status: ('A' for Active; 'I' for Inactive)
REMARK    1  A    between atoms: S_3  and  C_2 
REMARK    2  A    between atoms: C_4  and  S_3 
REMARK    3  A    between atoms: C_12  and  C_10 
REMARK    4  A    between atoms: C_19  and  C_17 
REMARK    5  A    between atoms: N_20  and  C_19 
REMARK    6  A    between atoms: S_21  and  N_20 
REMARK    7  A    between atoms: N_20  and  C_22 
REMARK    8  A    between atoms: S_21  and  C_23 
REMARK    9  A    between atoms: C_22  and  C_26 
ROOT
ATOM      1  C   UNL d   1      17.249  -3.809  59.164  0.00  0.00     0.147 C 
ENDROOT
BRANCH   1   2
ATOM      2  N   UNL d   1      17.928  -4.130  60.444  0.00  0.00    -0.192 NA
BRANCH   2   3
ATOM      3  S   UNL d   1      18.004  -5.920  60.659  0.00  0.00     0.263 S 
ATOM      4  O   UNL d   1      16.628  -6.411  61.127  0.00  0.00    -0.204 OA
ATOM      5  O   UNL d   1      18.860  -6.169  61.912  0.00  0.00    -0.204 OA
BRANCH   3   6
ATOM      6  C   UNL d   1      18.574  -6.861  59.250  0.00  0.00     0.183 A 
ATOM      7  C   UNL d   1      19.870  -6.940  58.793  0.00  0.00     0.136 A 
ATOM      8  N   UNL d   1      19.862  -7.713  57.696  0.00  0.00    -0.353 N 
ATOM      9  C   UNL d   1      21.002  -8.069  56.861  0.00  0.00     0.156 C 
ATOM     10  C   UNL d   1      18.583  -8.092  57.508  0.00  0.00     0.210 A 
ATOM     11  N   UNL d   1      17.762  -7.580  58.450  0.00  0.00    -0.229 NA
ENDBRANCH   3   6
ENDBRANCH   2   3
BRANCH   2  12
ATOM     12  C   UNL d   1      19.265  -3.485  60.601  0.00  0.00     0.104 C 
ATOM     13  C   UNL d   1      19.471  -2.269  59.673  0.00  0.00     0.032 C 
BRANCH  12  14
ATOM     14  C   UNL d   1      19.432  -2.982  62.026  0.00  0.00    -0.026 A 
ATOM     15  C   UNL d   1      18.462  -2.296  62.779  0.00  0.00    -0.013 A 
ATOM     16  C   UNL d   1      17.069  -1.906  62.386  0.00  0.00     0.057 C 
ATOM     17  S   UNL d   1      19.103  -1.944  64.294  0.00  0.00    -0.100 SA
ATOM     18  C   UNL d   1      20.600  -2.651  64.025  0.00  0.00    -0.020 A 
ATOM     19  C   UNL d   1      21.721  -2.702  65.007  0.00  0.00     0.056 C 
ATOM     20  C   UNL d   1      20.629  -3.179  62.743  0.00  0.00     0.024 A 
ENDBRANCH  12  14
ENDBRANCH   2  12
ENDBRANCH   1   2
BRANCH   1  21
ATOM     21  C   UNL d   1      15.797  -3.417  59.384  0.00  0.00    -0.038 A 
ATOM     22  C   UNL d   1      15.310  -2.082  59.389  0.00  0.00    -0.054 A 
ATOM     23  C   UNL d   1      16.168  -0.851  59.192  0.00  0.00     0.049 C 
ATOM     24  C   UNL d   1      13.935  -1.851  59.578  0.00  0.00     0.019 A 
ATOM     25  C   UNL d   1      13.011  -2.903  59.771  0.00  0.00    -0.025 A 
ATOM     26  C   UNL d   1      13.527  -4.217  59.777  0.00  0.00     0.013 A 
ATOM     27  C   UNL d   1      14.885  -4.462  59.589  0.00  0.00     0.010 A 
BRANCH  25  28
ATOM     28  C   UNL d   1      11.529  -2.635  59.954  0.00  0.00    -0.025 A 
ATOM     29  C   UNL d   1      10.654  -3.627  60.463  0.00  0.00     0.012 A 
ATOM     30  C   UNL d   1       9.289  -3.376  60.628  0.00  0.00     0.002 A 
ATOM     31  C   UNL d   1       8.755  -2.137  60.289  0.00  0.00     0.023 A 
ATOM     32  C   UNL d   1       9.585  -1.139  59.779  0.00  0.00     0.060 A 
ATOM     33  C   UNL d   1      10.955  -1.382  59.616  0.00  0.00     0.035 A 
BRANCH  32  34
ATOM     34  S   UNL d   1       8.907   0.464  59.333  0.00  0.00     0.175 S 
ATOM     35  O   UNL d   1       9.476   1.497  60.320  0.00  0.00    -0.223 OA
ATOM     36  O   UNL d   1       7.446   0.476  59.807  0.00  0.00    -0.223 OA
BRANCH  34  37
ATOM     37  C   UNL d   1       8.964   1.184  57.660  0.00  0.00     0.141 C 
ATOM     38  C   UNL d   1       7.855   2.210  57.465  0.00  0.00     0.021 C 
ENDBRANCH  34  37
ENDBRANCH  32  34
ENDBRANCH  25  28
ENDBRANCH   1  21
TORSDOF 9
ENDMDL
MODEL 2
REMARK VINA RESULT:   -11.870      2.253      5.035
REMARK INTER + INTRA:         -16.932
REMARK INTER:                 -16.083
REMARK INTRA:                  -0.849
REMARK UNBOUND:                 1.184
REMARK  9 active torsions:
REMARK  status: ('A' for Active; 'I' for Inactive)
REMARK    1  A    between atoms: S_3  and  C_2 
REMARK    2  A    between atoms: C_4  and  S_3 
REMARK    3  A    between atoms: C_12  and  C_10 
REMARK    4  A    between atoms: C_19  and  C_17 
REMARK    5  A    between atoms: N_20  and  C_19 
REMARK    6  A    between atoms: S_21  and  N_20 
REMARK    7  A    between atoms: N_20  and  C_22 
REMARK    8  A    between atoms: S_21  and  C_23 
REMARK    9  A    between atoms: C_22  and  C_26 
ROOT
ATOM      1  C   UNL d   1      16.988  -4.329  61.040  0.00  0.00     0.147 C 
ENDROOT
BRANCH   1   2
ATOM      2  N   UNL d   1      17.892  -3.655  60.074  0.00  0.00    -0.192 NA
BRANCH   2   3
ATOM      3  S   UNL d   1      18.400  -2.053  60.735  0.00  0.00     0.263 S 
ATOM      4  O   UNL d   1      17.227  -1.076  60.591  0.00  0.00    -0.204 OA
ATOM      5  O   UNL d   1      19.408  -1.472  59.729  0.00  0.00    -0.204 OA
BRANCH   3   6
ATOM      6  C   UNL d   1      19.033  -2.054  62.407  0.00  0.00     0.183 A 
ATOM      7  C   UNL d   1      20.250  -2.551  62.817  0.00  0.00     0.136 A 
ATOM      8  N   UNL d   1      20.318  -2.393  64.149  0.00  0.00    -0.353 N 
ATOM      9  C   UNL d   1      21.413  -2.784  65.027  0.00  0.00     0.156 C 
ATOM     10  C   UNL d   1      19.164  -1.806  64.521  0.00  0.00     0.210 A 
ATOM     11  N   UNL d   1      18.348  -1.586  63.468  0.00  0.00    -0.229 NA
ENDBRANCH   3   6
ENDBRANCH   2   3
BRANCH   2  12
ATOM     12  C   UNL d   1      19.057  -4.486  59.651  0.00  0.00     0.104 C 
ATOM     13  C   UNL d   1      19.478  -5.532  60.706  0.00  0.00     0.032 C 
BRANCH  12  14
ATOM     14  C   UNL d   1      18.711  -5.255  58.386  0.00  0.00    -0.026 A 
ATOM     15  C   UNL d   1      18.456  -4.693  57.121  0.00  0.00    -0.013 A 
ATOM     16  C   UNL d   1      18.466  -3.251  56.713  0.00  0.00     0.057 C 
ATOM     17  S   UNL d   1      18.117  -5.934  56.037  0.00  0.00    -0.100 SA
ATOM     18  C   UNL d   1      18.290  -7.188  57.138  0.00  0.00    -0.020 A 
ATOM     19  C   UNL d   1      18.118  -8.637  56.832  0.00  0.00     0.056 C 
ATOM     20  C   UNL d   1      18.618  -6.661  58.378  0.00  0.00     0.024 A 
ENDBRANCH  12  14
ENDBRANCH   2  12
ENDBRANCH   1   2
BRANCH   1  21
ATOM     21  C   UNL d   1      15.529  -4.014  60.752  0.00  0.00    -0.038 A 
ATOM     22  C   UNL d   1      14.433  -4.832  61.137  0.00  0.00    -0.054 A 
ATOM     23  C   UNL d   1      14.556  -6.147  61.875  0.00  0.00     0.049 C 
ATOM     24  C   UNL d   1      13.123  -4.416  60.834  0.00  0.00     0.019 A 
ATOM     25  C   UNL d   1      12.852  -3.208  60.151  0.00  0.00    -0.025 A 
ATOM     26  C   UNL d   1      13.962  -2.425  59.768  0.00  0.00     0.013 A 
ATOM     27  C   UNL d   1      15.265  -2.822  60.063  0.00  0.00     0.010 A 
BRANCH  25  28
ATOM     28  C   UNL d   1      11.432  -2.767  59.851  0.00  0.00    -0.025 A 
ATOM     29  C   UNL d   1      10.373  -3.703  59.743  0.00  0.00     0.012 A 
ATOM     30  C   UNL d   1       9.067  -3.293  59.464  0.00  0.00     0.002 A 
ATOM     31  C   UNL d   1       8.776  -1.945  59.280  0.00  0.00     0.023 A 
ATOM     32  C   UNL d   1       9.794  -0.996  59.372  0.00  0.00     0.060 A 
ATOM     33  C   UNL d   1      11.104  -1.401  59.657  0.00  0.00     0.035 A 
BRANCH  32  34
ATOM     34  S   UNL d   1       9.432   0.747  59.133  0.00  0.00     0.175 S 
ATOM     35  O   UNL d   1      10.327   1.252  57.989  0.00  0.00    -0.223 OA
ATOM     36  O   UNL d   1      10.098   1.502  60.294  0.00  0.00    -0.223 OA
BRANCH  34  37
ATOM     37  C   UNL d   1       7.762   1.435  58.897  0.00  0.00     0.141 C 
ATOM     38  C   UNL d   1       7.695   2.301  57.644  0.00  0.00     0.021 C 
ENDBRANCH  34  37
ENDBRANCH  32  34
ENDBRANCH  25  28
ENDBRANCH   1  21
TORSDOF 9
ENDMDL
MODEL 3
REMARK VINA RESULT:   -11.673      2.309      5.085
REMARK INTER + INTRA:         -16.631
REMARK INTER:                 -15.921
REMARK INTRA:                  -0.709
REMARK UNBOUND:                 1.184
REMARK  9 active torsions:
REMARK  status: ('A' for Active; 'I' for Inactive)
REMARK    1  A    between atoms: S_3  and  C_2 
REMARK    2  A    between atoms: C_4  and  S_3 
REMARK    3  A    between atoms: C_12  and  C_10 
REMARK    4  A    between atoms: C_19  and  C_17 
REMARK    5  A    between atoms: N_20  and  C_19 
REMARK    6  A    between atoms: S_21  and  N_20 
REMARK    7  A    between atoms: N_20  and  C_22 
REMARK    8  A    between atoms: S_21  and  C_23 
REMARK    9  A    between atoms: C_22  and  C_26 
ROOT
ATOM      1  C   UNL d   1      16.862  -6.377  60.038  0.00  0.00     0.147 C 
ENDROOT
BRANCH   1   2
ATOM      2  N   UNL d   1      18.198  -5.819  59.713  0.00  0.00    -0.192 NA
BRANCH   2   3
ATOM      3  S   UNL d   1      18.622  -4.527  60.899  0.00  0.00     0.263 S 
ATOM      4  O   UNL d   1      20.064  -4.754  61.370  0.00  0.00    -0.204 OA
ATOM      5  O   UNL d   1      17.830  -4.839  62.179  0.00  0.00    -0.204 OA
BRANCH   3   6
ATOM      6  C   UNL d   1      18.386  -2.842  60.349  0.00  0.00     0.183 A 
ATOM      7  C   UNL d   1      18.490  -2.386  59.054  0.00  0.00     0.136 A 
ATOM      8  N   UNL d   1      18.278  -1.060  59.078  0.00  0.00    -0.353 N 
ATOM      9  C   UNL d   1      18.302  -0.144  57.945  0.00  0.00     0.156 C 
ATOM     10  C   UNL d   1      18.047  -0.737  60.365  0.00  0.00     0.210 A 
ATOM     11  N   UNL d   1      18.109  -1.815  61.176  0.00  0.00    -0.229 NA
ENDBRANCH   3   6
ENDBRANCH   2   3
BRANCH   2  12
ATOM     12  C   UNL d   1      19.273  -6.848  59.591  0.00  0.00     0.104 C 
ATOM     13  C   UNL d   1      18.814  -8.263  60.003  0.00  0.00     0.032 C 
BRANCH  12  14
ATOM     14  C   UNL d   1      19.736  -6.942  58.146  0.00  0.00    -0.026 A 
ATOM     15  C   UNL d   1      18.967  -7.398  57.059  0.00  0.00    -0.013 A 
ATOM     16  C   UNL d   1      17.549  -7.885  57.048  0.00  0.00     0.057 C 
ATOM     17  S   UNL d   1      19.904  -7.322  55.664  0.00  0.00    -0.100 SA
ATOM     18  C   UNL d   1      21.280  -6.712  56.404  0.00  0.00    -0.020 A 
ATOM     19  C   UNL d   1      22.563  -6.392  55.714  0.00  0.00     0.056 C 
ATOM     20  C   UNL d   1      21.035  -6.555  57.760  0.00  0.00     0.024 A 
ENDBRANCH  12  14
ENDBRANCH   2  12
ENDBRANCH   1   2
BRANCH   1  21
ATOM     21  C   UNL d   1      15.781  -5.309  59.980  0.00  0.00    -0.038 A 
ATOM     22  C   UNL d   1      14.747  -5.151  60.941  0.00  0.00    -0.054 A 
ATOM     23  C   UNL d   1      14.557  -6.031  62.157  0.00  0.00     0.049 C 
ATOM     24  C   UNL d   1      13.820  -4.103  60.788  0.00  0.00     0.019 A 
ATOM     25  C   UNL d   1      13.873  -3.197  59.704  0.00  0.00    -0.025 A 
ATOM     26  C   UNL d   1      14.902  -3.390  58.758  0.00  0.00     0.013 A 
ATOM     27  C   UNL d   1      15.829  -4.421  58.896  0.00  0.00     0.010 A 
BRANCH  25  28
ATOM     28  C   UNL d   1      12.876  -2.063  59.568  0.00  0.00    -0.025 A 
ATOM     29  C   UNL d   1      13.283  -0.761  59.182  0.00  0.00     0.012 A 
ATOM     30  C   UNL d   1      12.360   0.282  59.060  0.00  0.00     0.002 A 
ATOM     31  C   UNL d   1      11.011   0.063  59.320  0.00  0.00     0.023 A 
ATOM     32  C   UNL d   1      10.575  -1.204  59.708  0.00  0.00     0.060 A 
ATOM     33  C   UNL d   1      11.494  -2.254  59.827  0.00  0.00     0.035 A 
BRANCH  32  34
ATOM     34  S   UNL d   1       8.837  -1.498  60.051  0.00  0.00     0.175 S 
ATOM     35  O   UNL d   1       8.753  -2.292  61.365  0.00  0.00    -0.223 OA
ATOM     36  O   UNL d   1       8.375  -2.603  59.087  0.00  0.00    -0.223 OA
BRANCH  34  37
ATOM     37  C   UNL d   1       7.554  -0.205  60.083  0.00  0.00     0.141 C 
ATOM     38  C   UNL d   1       7.843   0.883  59.056  0.00  0.00     0.021 C 
ENDBRANCH  34  37
ENDBRANCH  32  34
ENDBRANCH  25  28
ENDBRANCH   1  21
TORSDOF 9
ENDMDL
MODEL 4
REMARK VINA RESULT:   -11.265      2.417      4.543
REMARK INTER + INTRA:         -16.008
REMARK INTER:                 -17.081
REMARK INTRA:                   1.073
REMARK UNBOUND:                 1.184
REMARK  9 active torsions:
REMARK  status: ('A' for Active; 'I' for Inactive)
REMARK    1  A    between atoms: S_3  and  C_2 
REMARK    2  A    between atoms: C_4  and  S_3 
REMARK    3  A    between atoms: C_12  and  C_10 
REMARK    4  A    between atoms: C_19  and  C_17 
REMARK    5  A    between atoms: N_20  and  C_19 
REMARK    6  A    between atoms: S_21  and  N_20 
REMARK    7  A    between atoms: N_20  and  C_22 
REMARK    8  A    between atoms: S_21  and  C_23 
REMARK    9  A    between atoms: C_22  and  C_26 
ROOT
ATOM      1  C   UNL d   1      16.627  -3.509  60.083  0.00  0.00     0.147 C 
ENDROOT
BRANCH   1   2
ATOM      2  N   UNL d   1      17.339  -2.673  59.084  0.00  0.00    -0.192 NA
BRANCH   2   3
ATOM      3  S   UNL d   1      18.369  -1.459  59.932  0.00  0.00     0.263 S 
ATOM      4  O   UNL d   1      17.548  -0.178  60.129  0.00  0.00    -0.204 OA
ATOM      5  O   UNL d   1      19.420  -0.995  58.910  0.00  0.00    -0.204 OA
BRANCH   3   6
ATOM      6  C   UNL d   1      19.108  -1.989  61.472  0.00  0.00     0.183 A 
ATOM      7  C   UNL d   1      18.843  -1.475  62.722  0.00  0.00     0.136 A 
ATOM      8  N   UNL d   1      19.633  -2.121  63.596  0.00  0.00    -0.353 N 
ATOM      9  C   UNL d   1      19.714  -1.906  65.035  0.00  0.00     0.156 C 
ATOM     10  C   UNL d   1      20.349  -3.006  62.876  0.00  0.00     0.210 A 
ATOM     11  N   UNL d   1      20.050  -2.948  61.561  0.00  0.00    -0.229 NA
ENDBRANCH   3   6
ENDBRANCH   2   3
BRANCH   2  12
ATOM     12  C   UNL d   1      18.107  -3.458  58.073  0.00  0.00     0.104 C 
ATOM     13  C   UNL d   1      19.523  -2.902  57.814  0.00  0.00     0.032 C 
BRANCH  12  14
ATOM     14  C   UNL d   1      18.280  -4.890  58.554  0.00  0.00    -0.026 A 
ATOM     15  C   UNL d   1      18.260  -6.041  57.745  0.00  0.00    -0.013 A 
ATOM     16  C   UNL d   1      18.074  -6.146  56.261  0.00  0.00     0.057 C 
ATOM     17  S   UNL d   1      18.492  -7.392  58.722  0.00  0.00    -0.100 SA
ATOM     18  C   UNL d   1      18.625  -6.549  60.166  0.00  0.00    -0.020 A 
ATOM     19  C   UNL d   1      18.851  -7.161  61.507  0.00  0.00     0.056 C 
ATOM     20  C   UNL d   1      18.492  -5.192  59.914  0.00  0.00     0.024 A 
ENDBRANCH  12  14
ENDBRANCH   2  12
ENDBRANCH   1   2
BRANCH   1  21
ATOM     21  C   UNL d   1      15.121  -3.311  60.006  0.00  0.00    -0.038 A 
ATOM     22  C   UNL d   1      14.157  -4.236  60.489  0.00  0.00    -0.054 A 
ATOM     23  C   UNL d   1      14.485  -5.563  61.137  0.00  0.00     0.049 C 
ATOM     24  C   UNL d   1      12.789  -3.924  60.382  0.00  0.00     0.019 A 
ATOM     25  C   UNL d   1      12.331  -2.718  59.803  0.00  0.00    -0.025 A 
ATOM     26  C   UNL d   1      13.312  -1.827  59.318  0.00  0.00     0.013 A 
ATOM     27  C   UNL d   1      14.671  -2.120  59.418  0.00  0.00     0.010 A 
BRANCH  25  28
ATOM     28  C   UNL d   1      10.853  -2.392  59.714  0.00  0.00    -0.025 A 
ATOM     29  C   UNL d   1       9.861  -3.380  59.938  0.00  0.00     0.012 A 
ATOM     30  C   UNL d   1       8.500  -3.075  59.853  0.00  0.00     0.002 A 
ATOM     31  C   UNL d   1       8.086  -1.784  59.540  0.00  0.00     0.023 A 
ATOM     32  C   UNL d   1       9.033  -0.788  59.307  0.00  0.00     0.060 A 
ATOM     33  C   UNL d   1      10.399  -1.086  59.396  0.00  0.00     0.035 A 
BRANCH  32  34
ATOM     34  S   UNL d   1       8.511   0.882  58.898  0.00  0.00     0.175 S 
ATOM     35  O   UNL d   1       9.189   1.836  59.894  0.00  0.00    -0.223 OA
ATOM     36  O   UNL d   1       7.063   1.028  59.390  0.00  0.00    -0.223 OA
BRANCH  34  37
ATOM     37  C   UNL d   1       8.619   1.623  57.236  0.00  0.00     0.141 C 
ATOM     38  C   UNL d   1       7.486   2.614  57.001  0.00  0.00     0.021 C 
ENDBRANCH  34  37
ENDBRANCH  32  34
ENDBRANCH  25  28
ENDBRANCH   1  21
TORSDOF 9
ENDMDL
MODEL 5
REMARK VINA RESULT:   -11.219      0.979      1.706
REMARK INTER + INTRA:         -15.938
REMARK INTER:                 -13.952
REMARK INTRA:                  -1.986
REMARK UNBOUND:                 1.184
REMARK  9 active torsions:
REMARK  status: ('A' for Active; 'I' for Inactive)
REMARK    1  A    between atoms: S_3  and  C_2 
REMARK    2  A    between atoms: C_4  and  S_3 
REMARK    3  A    between atoms: C_12  and  C_10 
REMARK    4  A    between atoms: C_19  and  C_17 
REMARK    5  A    between atoms: N_20  and  C_19 
REMARK    6  A    between atoms: S_21  and  N_20 
REMARK    7  A    between atoms: N_20  and  C_22 
REMARK    8  A    between atoms: S_21  and  C_23 
REMARK    9  A    between atoms: C_22  and  C_26 
ROOT
ATOM      1  C   UNL d   1      17.655  -3.768  59.218  0.00  0.00     0.147 C 
ENDROOT
BRANCH   1   2
ATOM      2  N   UNL d   1      18.317  -4.122  60.498  0.00  0.00    -0.192 NA
BRANCH   2   3
ATOM      3  S   UNL d   1      18.660  -5.893  60.535  0.00  0.00     0.263 S 
ATOM      4  O   UNL d   1      17.436  -6.613  61.115  0.00  0.00    -0.204 OA
ATOM      5  O   UNL d   1      19.698  -6.109  61.648  0.00  0.00    -0.204 OA
BRANCH   3   6
ATOM      6  C   UNL d   1      19.163  -6.631  58.986  0.00  0.00     0.183 A 
ATOM      7  C   UNL d   1      18.329  -7.170  58.031  0.00  0.00     0.136 A 
ATOM      8  N   UNL d   1      19.106  -7.651  57.047  0.00  0.00    -0.353 N 
ATOM      9  C   UNL d   1      18.669  -8.325  55.831  0.00  0.00     0.156 C 
ATOM     10  C   UNL d   1      20.378  -7.396  57.409  0.00  0.00     0.210 A 
ATOM     11  N   UNL d   1      20.447  -6.769  58.603  0.00  0.00    -0.229 NA
ENDBRANCH   3   6
ENDBRANCH   2   3
BRANCH   2  12
ATOM     12  C   UNL d   1      19.529  -3.305  60.802  0.00  0.00     0.104 C 
ATOM     13  C   UNL d   1      19.682  -2.073  59.885  0.00  0.00     0.032 C 
BRANCH  12  14
ATOM     14  C   UNL d   1      19.456  -2.783  62.228  0.00  0.00    -0.026 A 
ATOM     15  C   UNL d   1      20.493  -2.826  63.178  0.00  0.00    -0.013 A 
ATOM     16  C   UNL d   1      21.882  -3.371  63.031  0.00  0.00     0.057 C 
ATOM     17  S   UNL d   1      19.944  -2.133  64.609  0.00  0.00    -0.100 SA
ATOM     18  C   UNL d   1      18.404  -1.767  64.053  0.00  0.00    -0.020 A 
ATOM     19  C   UNL d   1      17.332  -1.105  64.851  0.00  0.00     0.056 C 
ATOM     20  C   UNL d   1      18.288  -2.179  62.735  0.00  0.00     0.024 A 
ENDBRANCH  12  14
ENDBRANCH   2  12
ENDBRANCH   1   2
BRANCH   1  21
ATOM     21  C   UNL d   1      16.195  -3.398  59.425  0.00  0.00    -0.038 A 
ATOM     22  C   UNL d   1      15.694  -2.070  59.465  0.00  0.00    -0.054 A 
ATOM     23  C   UNL d   1      16.540  -0.824  59.323  0.00  0.00     0.049 C 
ATOM     24  C   UNL d   1      14.313  -1.860  59.639  0.00  0.00     0.019 A 
ATOM     25  C   UNL d   1      13.397  -2.928  59.781  0.00  0.00    -0.025 A 
ATOM     26  C   UNL d   1      13.928  -4.235  59.753  0.00  0.00     0.013 A 
ATOM     27  C   UNL d   1      15.292  -4.460  59.580  0.00  0.00     0.010 A 
BRANCH  25  28
ATOM     28  C   UNL d   1      11.910  -2.682  59.947  0.00  0.00    -0.025 A 
ATOM     29  C   UNL d   1      11.036  -3.702  60.401  0.00  0.00     0.012 A 
ATOM     30  C   UNL d   1       9.666  -3.471  60.551  0.00  0.00     0.002 A 
ATOM     31  C   UNL d   1       9.125  -2.225  60.251  0.00  0.00     0.023 A 
ATOM     32  C   UNL d   1       9.953  -1.199  59.796  0.00  0.00     0.060 A 
ATOM     33  C   UNL d   1      11.328  -1.423  59.650  0.00  0.00     0.035 A 
BRANCH  32  34
ATOM     34  S   UNL d   1       9.267   0.413  59.402  0.00  0.00     0.175 S 
ATOM     35  O   UNL d   1      10.015   0.946  58.169  0.00  0.00    -0.223 OA
ATOM     36  O   UNL d   1       9.817   1.398  60.446  0.00  0.00    -0.223 OA
BRANCH  34  37
ATOM     37  C   UNL d   1       7.491   0.757  59.183  0.00  0.00     0.141 C 
ATOM     38  C   UNL d   1       7.271   2.081  58.461  0.00  0.00     0.021 C 
ENDBRANCH  34  37
ENDBRANCH  32  34
ENDBRANCH  25  28
ENDBRANCH   1  21
TORSDOF 9
ENDMDL
MODEL 6
REMARK VINA RESULT:   -10.946      1.754      4.840
REMARK INTER + INTRA:         -15.521
REMARK INTER:                 -17.069
REMARK INTRA:                   1.548
REMARK UNBOUND:                 1.184
REMARK  9 active torsions:
REMARK  status: ('A' for Active; 'I' for Inactive)
REMARK    1  A    between atoms: S_3  and  C_2 
REMARK    2  A    between atoms: C_4  and  S_3 
REMARK    3  A    between atoms: C_12  and  C_10 
REMARK    4  A    between atoms: C_19  and  C_17 
REMARK    5  A    between atoms: N_20  and  C_19 
REMARK    6  A    between atoms: S_21  and  N_20 
REMARK    7  A    between atoms: N_20  and  C_22 
REMARK    8  A    between atoms: S_21  and  C_23 
REMARK    9  A    between atoms: C_22  and  C_26 
ROOT
ATOM      1  C   UNL d   1      18.752  -2.865  58.759  0.00  0.00     0.147 C 
ENDROOT
BRANCH   1   2
ATOM      2  N   UNL d   1      19.144  -4.296  58.742  0.00  0.00    -0.192 NA
BRANCH   2   3
ATOM      3  S   UNL d   1      18.952  -4.999  60.393  0.00  0.00     0.263 S 
ATOM      4  O   UNL d   1      19.917  -6.183  60.532  0.00  0.00    -0.204 OA
ATOM      5  O   UNL d   1      17.590  -5.711  60.404  0.00  0.00    -0.204 OA
BRANCH   3   6
ATOM      6  C   UNL d   1      19.135  -3.861  61.760  0.00  0.00     0.183 A 
ATOM      7  C   UNL d   1      20.274  -3.661  62.508  0.00  0.00     0.136 A 
ATOM      8  N   UNL d   1      19.978  -2.756  63.455  0.00  0.00    -0.353 N 
ATOM      9  C   UNL d   1      20.865  -2.242  64.490  0.00  0.00     0.156 C 
ATOM     10  C   UNL d   1      18.686  -2.421  63.268  0.00  0.00     0.210 A 
ATOM     11  N   UNL d   1      18.136  -3.087  62.231  0.00  0.00    -0.229 NA
ENDBRANCH   3   6
ENDBRANCH   2   3
BRANCH   2  12
ATOM     12  C   UNL d   1      18.444  -5.104  57.700  0.00  0.00     0.104 C 
ATOM     13  C   UNL d   1      18.028  -4.280  56.463  0.00  0.00     0.032 C 
BRANCH  12  14
ATOM     14  C   UNL d   1      19.362  -6.209  57.201  0.00  0.00    -0.026 A 
ATOM     15  C   UNL d   1      19.158  -7.592  57.368  0.00  0.00    -0.013 A 
ATOM     16  C   UNL d   1      18.026  -8.300  58.051  0.00  0.00     0.057 C 
ATOM     17  S   UNL d   1      20.435  -8.417  56.650  0.00  0.00    -0.100 SA
ATOM     18  C   UNL d   1      21.255  -7.054  56.118  0.00  0.00    -0.020 A 
ATOM     19  C   UNL d   1      22.542  -7.058  55.365  0.00  0.00     0.056 C 
ATOM     20  C   UNL d   1      20.544  -5.923  56.490  0.00  0.00     0.024 A 
ENDBRANCH  12  14
ENDBRANCH   2  12
ENDBRANCH   1   2
BRANCH   1  21
ATOM     21  C   UNL d   1      17.270  -2.693  59.054  0.00  0.00    -0.038 A 
ATOM     22  C   UNL d   1      16.635  -1.449  59.311  0.00  0.00    -0.054 A 
ATOM     23  C   UNL d   1      17.340  -0.112  59.348  0.00  0.00     0.049 C 
ATOM     24  C   UNL d   1      15.247  -1.421  59.545  0.00  0.00     0.019 A 
ATOM     25  C   UNL d   1      14.455  -2.592  59.538  0.00  0.00    -0.025 A 
ATOM     26  C   UNL d   1      15.118  -3.813  59.295  0.00  0.00     0.013 A 
ATOM     27  C   UNL d   1      16.490  -3.858  59.060  0.00  0.00     0.010 A 
BRANCH  25  28
ATOM     28  C   UNL d   1      12.957  -2.538  59.773  0.00  0.00    -0.025 A 
ATOM     29  C   UNL d   1      12.227  -3.687  60.166  0.00  0.00     0.012 A 
ATOM     30  C   UNL d   1      10.847  -3.633  60.380  0.00  0.00     0.002 A 
ATOM     31  C   UNL d   1      10.153  -2.440  60.204  0.00  0.00     0.023 A 
ATOM     32  C   UNL d   1      10.838  -1.290  59.811  0.00  0.00     0.060 A 
ATOM     33  C   UNL d   1      12.222  -1.337  59.602  0.00  0.00     0.035 A 
BRANCH  32  34
ATOM     34  S   UNL d   1       9.953   0.256  59.578  0.00  0.00     0.175 S 
ATOM     35  O   UNL d   1      10.660   1.028  58.452  0.00  0.00    -0.223 OA
ATOM     36  O   UNL d   1      10.335   1.168  60.754  0.00  0.00    -0.223 OA
BRANCH  34  37
ATOM     37  C   UNL d   1       8.155   0.391  59.319  0.00  0.00     0.141 C 
ATOM     38  C   UNL d   1       7.805   1.648  58.532  0.00  0.00     0.021 C 
ENDBRANCH  34  37
ENDBRANCH  32  34
ENDBRANCH  25  28
ENDBRANCH   1  21
TORSDOF 9
ENDMDL
MODEL 7
REMARK VINA RESULT:   -10.474      1.558      2.060
REMARK INTER + INTRA:         -14.801
REMARK INTER:                 -15.042
REMARK INTRA:                   0.241
REMARK UNBOUND:                 1.184
REMARK  9 active torsions:
REMARK  status: ('A' for Active; 'I' for Inactive)
REMARK    1  A    between atoms: S_3  and  C_2 
REMARK    2  A    between atoms: C_4  and  S_3 
REMARK    3  A    between atoms: C_12  and  C_10 
REMARK    4  A    between atoms: C_19  and  C_17 
REMARK    5  A    between atoms: N_20  and  C_19 
REMARK    6  A    between atoms: S_21  and  N_20 
REMARK    7  A    between atoms: N_20  and  C_22 
REMARK    8  A    between atoms: S_21  and  C_23 
REMARK    9  A    between atoms: C_22  and  C_26 
ROOT
ATOM      1  C   UNL d   1      16.972  -4.143  59.169  0.00  0.00     0.147 C 
ENDROOT
BRANCH   1   2
ATOM      2  N   UNL d   1      17.395  -5.142  60.182  0.00  0.00    -0.192 NA
BRANCH   2   3
ATOM      3  S   UNL d   1      18.113  -6.578  59.356  0.00  0.00     0.263 S 
ATOM      4  O   UNL d   1      16.973  -7.502  58.910  0.00  0.00    -0.204 OA
ATOM      5  O   UNL d   1      18.778  -7.421  60.456  0.00  0.00    -0.204 OA
BRANCH   3   6
ATOM      6  C   UNL d   1      19.226  -6.232  58.000  0.00  0.00     0.183 A 
ATOM      7  C   UNL d   1      20.542  -6.626  57.906  0.00  0.00     0.136 A 
ATOM      8  N   UNL d   1      21.027  -6.131  56.755  0.00  0.00    -0.353 N 
ATOM      9  C   UNL d   1      22.381  -6.275  56.235  0.00  0.00     0.156 C 
ATOM     10  C   UNL d   1      20.013  -5.460  56.174  0.00  0.00     0.210 A 
ATOM     11  N   UNL d   1      18.888  -5.502  56.919  0.00  0.00    -0.229 NA
ENDBRANCH   3   6
ENDBRANCH   2   3
BRANCH   2  12
ATOM     12  C   UNL d   1      18.292  -4.592  61.240  0.00  0.00     0.104 C 
ATOM     13  C   UNL d   1      19.646  -5.327  61.337  0.00  0.00     0.032 C 
BRANCH  12  14
ATOM     14  C   UNL d   1      18.605  -3.134  60.945  0.00  0.00    -0.026 A 
ATOM     15  C   UNL d   1      18.341  -2.044  61.795  0.00  0.00    -0.013 A 
ATOM     16  C   UNL d   1      17.713  -2.042  63.156  0.00  0.00     0.057 C 
ATOM     17  S   UNL d   1      18.861  -0.632  61.041  0.00  0.00    -0.100 SA
ATOM     18  C   UNL d   1      19.426  -1.372  59.645  0.00  0.00    -0.020 A 
ATOM     19  C   UNL d   1      20.048  -0.670  58.486  0.00  0.00     0.056 C 
ATOM     20  C   UNL d   1      19.220  -2.740  59.741  0.00  0.00     0.024 A 
ENDBRANCH  12  14
ENDBRANCH   2  12
ENDBRANCH   1   2
BRANCH   1  21
ATOM     21  C   UNL d   1      15.543  -3.681  59.401  0.00  0.00    -0.038 A 
ATOM     22  C   UNL d   1      15.105  -2.331  59.320  0.00  0.00    -0.054 A 
ATOM     23  C   UNL d   1      15.999  -1.152  59.007  0.00  0.00     0.049 C 
ATOM     24  C   UNL d   1      13.746  -2.035  59.532  0.00  0.00     0.019 A 
ATOM     25  C   UNL d   1      12.791  -3.034  59.830  0.00  0.00    -0.025 A 
ATOM     26  C   UNL d   1      13.260  -4.362  59.919  0.00  0.00     0.013 A 
ATOM     27  C   UNL d   1      14.602  -4.673  59.710  0.00  0.00     0.010 A 
BRANCH  25  28
ATOM     28  C   UNL d   1      11.327  -2.697  60.036  0.00  0.00    -0.025 A 
ATOM     29  C   UNL d   1      10.426  -3.627  60.615  0.00  0.00     0.012 A 
ATOM     30  C   UNL d   1       9.078  -3.312  60.801  0.00  0.00     0.002 A 
ATOM     31  C   UNL d   1       8.585  -2.070  60.414  0.00  0.00     0.023 A 
ATOM     32  C   UNL d   1       9.439  -1.132  59.835  0.00  0.00     0.060 A 
ATOM     33  C   UNL d   1      10.794  -1.440  59.652  0.00  0.00     0.035 A 
BRANCH  32  34
ATOM     34  S   UNL d   1       8.815   0.474  59.328  0.00  0.00     0.175 S 
ATOM     35  O   UNL d   1       9.406   1.523  60.284  0.00  0.00    -0.223 OA
ATOM     36  O   UNL d   1       7.350   0.546  59.788  0.00  0.00    -0.223 OA
BRANCH  34  37
ATOM     37  C   UNL d   1       8.906   1.132  57.632  0.00  0.00     0.141 C 
ATOM     38  C   UNL d   1       7.898   2.255  57.422  0.00  0.00     0.021 C 
ENDBRANCH  34  37
ENDBRANCH  32  34
ENDBRANCH  25  28
ENDBRANCH   1  21
TORSDOF 9
ENDMDL
