REMARK  9 active torsions:
REMARK  status: ('A' for Active; 'I' for Inactive)
REMARK    1  A    between atoms: S_3  and  C_2 
REMARK    2  A    between atoms: C_4  and  S_3 
REMARK    3  A    between atoms: C_12  and  C_10 
REMARK    4  A    between atoms: C_19  and  C_17 
REMARK    5  A    between atoms: N_20  and  C_19 
REMARK    6  A    between atoms: S_21  and  N_20 
REMARK    7  A    between atoms: N_20  and  C_22 
REMARK    8  A    between atoms: S_21  and  C_23 
REMARK    9  A    between atoms: C_22  and  C_26 
ROOT
ATOM      1  C   UNL d   1       0.214  -4.543   7.044  0.00  0.00     0.147 C 
ENDROOT
BRANCH   1   2
ATOM      2  N   UNL d   1       1.279  -5.140   7.888  0.00  0.00    -0.192 NA
BRANCH   2   3
ATOM      3  S   UNL d   1       2.877  -4.429   7.442  0.00  0.00     0.263 S 
ATOM      4  O   UNL d   1       3.786  -4.466   8.677  0.00  0.00    -0.204 OA
ATOM      5  O   UNL d   1       2.646  -2.918   7.277  0.00  0.00    -0.204 OA
BRANCH   3   6
ATOM      6  C   UNL d   1       3.693  -5.150   6.024  0.00  0.00     0.183 A 
ATOM      7  C   UNL d   1       3.946  -4.524   4.824  0.00  0.00     0.136 A 
ATOM      8  N   UNL d   1       4.537  -5.423   4.020  0.00  0.00    -0.353 N 
ATOM      9  C   UNL d   1       4.975  -5.221   2.645  0.00  0.00     0.156 C 
ATOM     10  C   UNL d   1       4.638  -6.561   4.734  0.00  0.00     0.210 A 
ATOM     11  N   UNL d   1       4.124  -6.426   5.975  0.00  0.00    -0.229 NA
ENDBRANCH   3   6
ENDBRANCH   2   3
BRANCH   2  12
ATOM     12  C   UNL d   1       1.012  -5.054   9.354  0.00  0.00     0.104 C 
ATOM     13  C   UNL d   1      -0.426  -5.462   9.739  0.00  0.00     0.032 C 
BRANCH  12  14
ATOM     14  C   UNL d   1       1.948  -5.988  10.105  0.00  0.00    -0.026 A 
ATOM     15  C   UNL d   1       2.811  -5.624  11.155  0.00  0.00    -0.013 A 
ATOM     16  C   UNL d   1       3.017  -4.277  11.780  0.00  0.00     0.057 C 
ATOM     17  S   UNL d   1       3.646  -6.992  11.667  0.00  0.00    -0.100 SA
ATOM     18  C   UNL d   1       2.932  -8.055  10.583  0.00  0.00    -0.020 A 
ATOM     19  C   UNL d   1       3.228  -9.513  10.480  0.00  0.00     0.056 C 
ATOM     20  C   UNL d   1       2.024  -7.361   9.798  0.00  0.00     0.024 A 
ENDBRANCH  12  14
ENDBRANCH   2  12
ENDBRANCH   1   2
BRANCH   1  21
ATOM     21  C   UNL d   1       0.502  -4.732   5.563  0.00  0.00    -0.038 A 
ATOM     22  C   UNL d   1       0.641  -3.675   4.624  0.00  0.00    -0.054 A 
ATOM     23  C   UNL d   1       0.507  -2.205   4.954  0.00  0.00     0.049 C 
ATOM     24  C   UNL d   1       0.934  -3.981   3.282  0.00  0.00     0.019 A 
ATOM     25  C   UNL d   1       1.092  -5.310   2.826  0.00  0.00    -0.025 A 
ATOM     26  C   UNL d   1       0.932  -6.338   3.779  0.00  0.00     0.013 A 
ATOM     27  C   UNL d   1       0.644  -6.052   5.112  0.00  0.00     0.010 A 
BRANCH  25  28
ATOM     28  C   UNL d   1       1.427  -5.618   1.379  0.00  0.00    -0.025 A 
ATOM     29  C   UNL d   1       1.407  -6.945   0.880  0.00  0.00     0.012 A 
ATOM     30  C   UNL d   1       1.718  -7.224  -0.453  0.00  0.00     0.002 A 
ATOM     31  C   UNL d   1       2.062  -6.197  -1.326  0.00  0.00     0.023 A 
ATOM     32  C   UNL d   1       2.099  -4.880  -0.869  0.00  0.00     0.060 A 
ATOM     33  C   UNL d   1       1.782  -4.593   0.465  0.00  0.00     0.035 A 
BRANCH  32  34
ATOM     34  S   UNL d   1       2.545  -3.545  -1.985  0.00  0.00     0.175 S 
ATOM     35  O   UNL d   1       3.488  -4.128  -3.050  0.00  0.00    -0.223 OA
ATOM     36  O   UNL d   1       3.559  -2.663  -1.240  0.00  0.00    -0.223 OA
BRANCH  34  37
ATOM     37  C   UNL d   1       1.351  -2.450  -2.819  0.00  0.00     0.141 C 
ATOM     38  C   UNL d   1       2.063  -1.409  -3.674  0.00  0.00     0.021 C 
ENDBRANCH  34  37
ENDBRANCH  32  34
ENDBRANCH  25  28
ENDBRANCH   1  21
TORSDOF 9
