/content/4EXS_VS/DOCKING/CLC-0000194/CLC-0000194_output.pdbqt
 OpenBabel03062504413D

 40 43  0  0  1  0  0  0  0  0999 V2000
   54.7050   17.5950   -3.7770 N   0  0  0  0  0  0  0  0  0  0  0  0
   55.2650   19.2270   -3.2650 S   0  0  0  0  0  0  0  0  0  0  0  0
   55.7860   19.9560   -4.5140 O   0  0  0  0  0  0  0  0  0  0  0  0
   56.5790   18.9790   -2.5120 O   0  0  0  0  0  0  0  0  0  0  0  0
   54.2470   20.2280   -2.1920 C   0  0  0  0  0  0  0  0  0  0  0  0
   53.8020   19.8850   -0.9360 C   0  0  0  0  0  3  0  0  0  0  0  0
   53.0440   20.9000   -0.4910 N   0  0  0  0  0  0  0  0  0  0  0  0
   52.3560   20.9710    0.7920 C   0  0  0  0  0  1  0  0  0  0  0  0
   53.0430   21.8290   -1.4660 C   0  0  0  0  0  3  0  0  0  0  0  0
   53.7730   21.4420   -2.5320 N   0  0  0  0  0  0  0  0  0  0  0  0
   54.1110   16.8140   -2.6660 C   0  0  0  0  0  2  0  0  0  0  0  0
   52.6340   16.5720   -2.8990 C   0  0  0  0  0  0  0  0  0  0  0  0
   52.0280   15.3100   -2.6830 C   0  0  0  0  0  0  0  0  0  0  0  0
   52.7760   14.1060   -2.1650 C   0  0  0  0  0  1  0  0  0  0  0  0
   50.6610   15.1440   -2.9590 C   0  0  0  0  0  3  0  0  0  0  0  0
   49.8560   16.2060   -3.4340 C   0  0  0  0  0  0  0  0  0  0  0  0
   50.4840   17.4590   -3.6170 C   0  0  0  0  0  3  0  0  0  0  0  0
   51.8430   17.6330   -3.3560 C   0  0  0  0  0  3  0  0  0  0  0  0
   48.3880   16.0050   -3.7390 C   0  0  0  0  0  0  0  0  0  0  0  0
   47.8950   14.7650   -4.2160 C   0  0  0  0  0  3  0  0  0  0  0  0
   46.5400   14.5870   -4.5060 C   0  0  0  0  0  3  0  0  0  0  0  0
   45.6380   15.6300   -4.3250 C   0  0  0  0  0  3  0  0  0  0  0  0
   46.0880   16.8640   -3.8490 C   0  0  0  0  0  0  0  0  0  0  0  0
   47.4470   17.0510   -3.5650 C   0  0  0  0  0  3  0  0  0  0  0  0
   44.9290   18.2130   -3.6050 S   0  0  0  0  0  0  0  0  0  0  0  0
   45.3030   19.3070   -4.6180 O   0  0  0  0  0  0  0  0  0  0  0  0
   45.3380   18.9450   -2.3170 O   0  0  0  0  0  0  0  0  0  0  0  0
   43.1150   18.0420   -3.6080 C   0  0  0  0  0  2  0  0  0  0  0  0
   42.6910   16.6840   -3.0630 C   0  0  0  0  0  1  0  0  0  0  0  0
   55.6530   16.7820   -4.5900 C   0  0  2  0  0  3  0  0  0  0  0  0
   55.5870   17.0710   -6.0890 C   0  0  0  0  0  0  0  0  0  0  0  0
   56.6960   17.1010   -6.9580 C   0  0  0  0  0  0  0  0  0  0  0  0
   58.1500   16.9120   -6.6430 C   0  0  0  0  0  1  0  0  0  0  0  0
   56.1570   17.4120   -8.5210 S   0  0  0  0  0  0  0  0  0  0  0  0
   54.5290   17.4990   -8.1350 C   0  0  0  0  0  0  0  0  0  0  0  0
   53.4210   17.7440   -9.1040 C   0  0  0  0  0  1  0  0  0  0  0  0
   54.3750   17.2940   -6.7730 C   0  0  0  0  0  3  0  0  0  0  0  0
   55.5220   15.2760   -4.2750 C   0  0  0  0  0  2  0  0  0  0  0  0
   56.8760   14.6310   -3.9400 C   0  0  0  0  0  2  0  0  0  0  0  0
   57.8470   15.6630   -3.3730 C   0  0  0  0  0  1  0  0  0  0  0  0
  1  2  1  0  0  0  0
  1 11  1  0  0  0  0
  2  4  2  0  0  0  0
  2  5  1  0  0  0  0
  3  2  2  0  0  0  0
  5  6  2  0  0  0  0
  6  7  1  0  0  0  0
  7  8  1  0  0  0  0
  9  7  1  0  0  0  0
 10  5  1  0  0  0  0
 10  9  2  0  0  0  0
 12 13  1  0  0  0  0
 12 11  1  0  0  0  0
 13 14  1  0  0  0  0
 15 13  2  0  0  0  0
 16 15  1  0  0  0  0
 17 16  2  0  0  0  0
 17 18  1  0  0  0  0
 18 12  2  0  0  0  0
 19 24  1  0  0  0  0
 19 16  1  0  0  0  0
 20 19  2  0  0  0  0
 21 22  2  0  0  0  0
 21 20  1  0  0  0  0
 22 23  1  0  0  0  0
 23 25  1  0  0  0  0
 23 24  2  0  0  0  0
 25 27  2  0  0  0  0
 26 25  2  0  0  0  0
 28 25  1  0  0  0  0
 28 29  1  0  0  0  0
 30 38  1  6  0  0  0
 30  1  1  0  0  0  0
 31 30  1  0  0  0  0
 32 33  1  0  0  0  0
 32 31  2  0  0  0  0
 34 35  1  0  0  0  0
 34 32  1  0  0  0  0
 35 37  2  0  0  0  0
 36 35  1  0  0  0  0
 37 31  1  0  0  0  0
 38 39  1  0  0  0  0
 39 40  1  0  0  0  0
M  END
>  <POSE>
1

>  <SCORE>
-7.876

>  <RMSD_LB_BP>
0.000

>  <RMSD_UB_BP>
0.000

$$$$
/content/4EXS_VS/DOCKING/CLC-0000194/CLC-0000194_output.pdbqt
 OpenBabel03062504413D

 40 43  0  0  1  0  0  0  0  0999 V2000
   54.5470   17.3710   -3.6660 N   0  0  0  0  0  0  0  0  0  0  0  0
   55.0630   18.9400   -2.9510 S   0  0  0  0  0  0  0  0  0  0  0  0
   54.9340   18.8240   -1.4240 O   0  0  0  0  0  0  0  0  0  0  0  0
   53.9170   19.9140   -3.2600 O   0  0  0  0  0  0  0  0  0  0  0  0
   56.5640   19.7300   -3.5120 C   0  0  0  0  0  0  0  0  0  0  0  0
   57.8400   19.2270   -3.4050 C   0  0  0  0  0  3  0  0  0  0  0  0
   58.6750   20.1460   -3.9170 N   0  0  0  0  0  0  0  0  0  0  0  0
   60.1260   20.0460   -4.0060 C   0  0  0  0  0  1  0  0  0  0  0  0
   57.9050   21.1740   -4.3220 C   0  0  0  0  0  3  0  0  0  0  0  0
   56.5970   20.9500   -4.0820 N   0  0  0  0  0  0  0  0  0  0  0  0
   53.9340   16.4580   -2.6730 C   0  0  0  0  0  2  0  0  0  0  0  0
   52.4520   16.2860   -2.9340 C   0  0  0  0  0  0  0  0  0  0  0  0
   51.7510   15.1050   -2.5850 C   0  0  0  0  0  0  0  0  0  0  0  0
   52.3960   13.9320   -1.8870 C   0  0  0  0  0  1  0  0  0  0  0  0
   50.3860   14.9950   -2.8930 C   0  0  0  0  0  3  0  0  0  0  0  0
   49.6740   16.0360   -3.5330 C   0  0  0  0  0  0  0  0  0  0  0  0
   50.3940   17.2110   -3.8470 C   0  0  0  0  0  3  0  0  0  0  0  0
   51.7530   17.3280   -3.5560 C   0  0  0  0  0  3  0  0  0  0  0  0
   48.2050   15.8940   -3.8690 C   0  0  0  0  0  0  0  0  0  0  0  0
   47.6830   14.6910   -4.4080 C   0  0  0  0  0  3  0  0  0  0  0  0
   46.3290   14.5680   -4.7270 C   0  0  0  0  0  3  0  0  0  0  0  0
   45.4560   15.6300   -4.5150 C   0  0  0  0  0  3  0  0  0  0  0  0
   45.9350   16.8280   -3.9800 C   0  0  0  0  0  0  0  0  0  0  0  0
   47.2940   16.9610   -3.6660 C   0  0  0  0  0  3  0  0  0  0  0  0
   44.8130   18.2010   -3.6960 S   0  0  0  0  0  0  0  0  0  0  0  0
   45.2190   19.3140   -4.6760 O   0  0  0  0  0  0  0  0  0  0  0  0
   45.2410   18.8830   -2.3870 O   0  0  0  0  0  0  0  0  0  0  0  0
   42.9960   18.0800   -3.7050 C   0  0  0  0  0  2  0  0  0  0  0  0
   42.5300   16.7600   -3.1040 C   0  0  0  0  0  1  0  0  0  0  0  0
   55.5320   16.6720   -4.5390 C   0  0  2  0  0  3  0  0  0  0  0  0
   55.4580   17.0810   -6.0080 C   0  0  0  0  0  0  0  0  0  0  0  0
   56.5690   17.3020   -6.8460 C   0  0  0  0  0  0  0  0  0  0  0  0
   58.0310   17.2390   -6.5150 C   0  0  0  0  0  1  0  0  0  0  0  0
   56.0220   17.6900   -8.3890 S   0  0  0  0  0  0  0  0  0  0  0  0
   54.3890   17.5730   -8.0350 C   0  0  0  0  0  0  0  0  0  0  0  0
   53.2750   17.7850   -9.0050 C   0  0  0  0  0  1  0  0  0  0  0  0
   54.2380   17.2350   -6.6990 C   0  0  0  0  0  3  0  0  0  0  0  0
   55.4690   15.1410   -4.3510 C   0  0  0  0  0  2  0  0  0  0  0  0
   56.8220   14.5490   -3.9240 C   0  0  0  0  0  2  0  0  0  0  0  0
   57.6780   15.5970   -3.2190 C   0  0  0  0  0  1  0  0  0  0  0  0
  1  2  1  0  0  0  0
  1 11  1  0  0  0  0
  2  3  2  0  0  0  0
  4  2  2  0  0  0  0
  5  6  2  0  0  0  0
  5  2  1  0  0  0  0
  7  6  1  0  0  0  0
  8  7  1  0  0  0  0
  9 10  2  0  0  0  0
  9  7  1  0  0  0  0
 10  5  1  0  0  0  0
 12 11  1  0  0  0  0
 12 13  1  0  0  0  0
 13 14  1  0  0  0  0
 15 13  2  0  0  0  0
 16 15  1  0  0  0  0
 17 18  1  0  0  0  0
 17 16  2  0  0  0  0
 18 12  2  0  0  0  0
 19 24  1  0  0  0  0
 19 16  1  0  0  0  0
 20 19  2  0  0  0  0
 21 22  2  0  0  0  0
 21 20  1  0  0  0  0
 22 23  1  0  0  0  0
 23 25  1  0  0  0  0
 23 24  2  0  0  0  0
 25 27  2  0  0  0  0
 26 25  2  0  0  0  0
 28 25  1  0  0  0  0
 28 29  1  0  0  0  0
 30 38  1  6  0  0  0
 30  1  1  0  0  0  0
 31 30  1  0  0  0  0
 32 33  1  0  0  0  0
 32 31  2  0  0  0  0
 34 35  1  0  0  0  0
 34 32  1  0  0  0  0
 35 37  2  0  0  0  0
 36 35  1  0  0  0  0
 37 31  1  0  0  0  0
 38 39  1  0  0  0  0
 39 40  1  0  0  0  0
M  END
>  <POSE>
2

>  <SCORE>
-7.353

>  <RMSD_LB_BP>
1.747

>  <RMSD_UB_BP>
2.366

$$$$
/content/4EXS_VS/DOCKING/CLC-0000194/CLC-0000194_output.pdbqt
 OpenBabel03062504413D

 40 43  0  0  1  0  0  0  0  0999 V2000
   55.4270   16.6860   -3.9680 N   0  0  0  0  0  0  0  0  0  0  0  0
   56.3200   16.7760   -5.5280 S   0  0  0  0  0  0  0  0  0  0  0  0
   56.9630   15.4030   -5.7800 O   0  0  0  0  0  0  0  0  0  0  0  0
   57.5640   17.6220   -5.2260 O   0  0  0  0  0  0  0  0  0  0  0  0
   55.5470   17.5080   -6.9620 C   0  0  0  0  0  0  0  0  0  0  0  0
   55.7160   18.7970   -7.4130 C   0  0  0  0  0  3  0  0  0  0  0  0
   54.9340   18.9470   -8.4940 N   0  0  0  0  0  0  0  0  0  0  0  0
   54.7850   20.1550   -9.2960 C   0  0  0  0  0  1  0  0  0  0  0  0
   54.3140   17.7670   -8.6810 C   0  0  0  0  0  3  0  0  0  0  0  0
   54.6670   16.8570   -7.7490 N   0  0  0  0  0  0  0  0  0  0  0  0
   54.6040   17.8900   -3.7030 C   0  0  0  0  0  2  0  0  0  0  0  0
   53.1270   17.5620   -3.7520 C   0  0  0  0  0  0  0  0  0  0  0  0
   52.1890   18.1450   -2.8650 C   0  0  0  0  0  0  0  0  0  0  0  0
   52.5590   19.1720   -1.8220 C   0  0  0  0  0  1  0  0  0  0  0  0
   50.8390   17.7640   -2.9370 C   0  0  0  0  0  3  0  0  0  0  0  0
   50.3750   16.8220   -3.8840 C   0  0  0  0  0  0  0  0  0  0  0  0
   51.3290   16.2760   -4.7720 C   0  0  0  0  0  3  0  0  0  0  0  0
   52.6740   16.6380   -4.7020 C   0  0  0  0  0  3  0  0  0  0  0  0
   48.9190   16.4130   -3.9390 C   0  0  0  0  0  0  0  0  0  0  0  0
   48.5370   15.0670   -4.1680 C   0  0  0  0  0  3  0  0  0  0  0  0
   47.1920   14.6960   -4.2280 C   0  0  0  0  0  3  0  0  0  0  0  0
   46.1900   15.6470   -4.0570 C   0  0  0  0  0  3  0  0  0  0  0  0
   46.5310   16.9810   -3.8230 C   0  0  0  0  0  0  0  0  0  0  0  0
   47.8780   17.3610   -3.7700 C   0  0  0  0  0  3  0  0  0  0  0  0
   45.2450   18.2130   -3.5930 S   0  0  0  0  0  0  0  0  0  0  0  0
   45.5670   19.3730   -4.5490 O   0  0  0  0  0  0  0  0  0  0  0  0
   45.5240   18.9280   -2.2630 O   0  0  0  0  0  0  0  0  0  0  0  0
   43.4560   17.8820   -3.6950 C   0  0  0  0  0  2  0  0  0  0  0  0
   43.0820   16.6390   -2.8980 C   0  0  0  0  0  1  0  0  0  0  0  0
   56.2060   16.2640   -2.7690 C   0  0  2  0  0  3  0  0  0  0  0  0
   55.8650   14.8610   -2.2720 C   0  0  0  0  0  0  0  0  0  0  0  0
   56.8020   13.9120   -1.8180 C   0  0  0  0  0  0  0  0  0  0  0  0
   58.2970   14.0140   -1.7530 C   0  0  0  0  0  1  0  0  0  0  0  0
   55.9830   12.5270   -1.3280 S   0  0  0  0  0  0  0  0  0  0  0  0
   54.4450   13.1000   -1.6630 C   0  0  0  0  0  0  0  0  0  0  0  0
   53.1740   12.3520   -1.4350 C   0  0  0  0  0  1  0  0  0  0  0  0
   54.5420   14.3850   -2.1730 C   0  0  0  0  0  3  0  0  0  0  0  0
   56.1320   17.3210   -1.6460 C   0  0  0  0  0  2  0  0  0  0  0  0
   57.4830   17.5120   -0.9360 C   0  0  0  0  0  2  0  0  0  0  0  0
   58.5850   17.8390   -1.9390 C   0  0  0  0  0  1  0  0  0  0  0  0
  1 11  1  0  0  0  0
  1 30  1  0  0  0  0
  2  4  2  0  0  0  0
  2  1  1  0  0  0  0
  3  2  2  0  0  0  0
  5  2  1  0  0  0  0
  6  5  2  0  0  0  0
  7  6  1  0  0  0  0
  8  7  1  0  0  0  0
  9  7  1  0  0  0  0
  9 10  2  0  0  0  0
 10  5  1  0  0  0  0
 12 11  1  0  0  0  0
 12 13  1  0  0  0  0
 13 14  1  0  0  0  0
 15 13  2  0  0  0  0
 16 15  1  0  0  0  0
 17 18  1  0  0  0  0
 17 16  2  0  0  0  0
 18 12  2  0  0  0  0
 19 16  1  0  0  0  0
 19 24  1  0  0  0  0
 20 19  2  0  0  0  0
 21 20  1  0  0  0  0
 21 22  2  0  0  0  0
 22 23  1  0  0  0  0
 23 24  2  0  0  0  0
 23 25  1  0  0  0  0
 25 27  2  0  0  0  0
 26 25  2  0  0  0  0
 28 25  1  0  0  0  0
 28 29  1  0  0  0  0
 30 31  1  0  0  0  0
 30 38  1  1  0  0  0
 31 37  1  0  0  0  0
 31 32  2  0  0  0  0
 32 33  1  0  0  0  0
 32 34  1  0  0  0  0
 35 36  1  0  0  0  0
 35 34  1  0  0  0  0
 37 35  2  0  0  0  0
 38 39  1  0  0  0  0
 40 39  1  0  0  0  0
M  END
>  <POSE>
3

>  <SCORE>
-7.231

>  <RMSD_LB_BP>
2.321

>  <RMSD_UB_BP>
4.649

$$$$
/content/4EXS_VS/DOCKING/CLC-0000194/CLC-0000194_output.pdbqt
 OpenBabel03062504413D

 40 43  0  0  1  0  0  0  0  0999 V2000
   54.8970   17.5210   -2.8140 N   0  0  0  0  0  0  0  0  0  0  0  0
   55.8650   16.4310   -1.7590 S   0  0  0  0  0  0  0  0  0  0  0  0
   55.5850   16.8200   -0.2990 O   0  0  0  0  0  0  0  0  0  0  0  0
   57.3140   16.9150   -1.9090 O   0  0  0  0  0  0  0  0  0  0  0  0
   55.8850   14.6710   -2.0670 C   0  0  0  0  0  0  0  0  0  0  0  0
   56.8980   13.9590   -2.6670 C   0  0  0  0  0  3  0  0  0  0  0  0
   56.5000   12.6780   -2.7330 N   0  0  0  0  0  0  0  0  0  0  0  0
   57.2500   11.5650   -3.3000 C   0  0  0  0  0  1  0  0  0  0  0  0
   55.2730   12.6340   -2.1810 C   0  0  0  0  0  3  0  0  0  0  0  0
   54.8620   13.8490   -1.7630 N   0  0  0  0  0  0  0  0  0  0  0  0
   54.5220   16.8940   -4.1030 C   0  0  0  0  0  2  0  0  0  0  0  0
   53.0320   16.6300   -4.1660 C   0  0  0  0  0  0  0  0  0  0  0  0
   52.3060   16.6570   -5.3830 C   0  0  0  0  0  0  0  0  0  0  0  0
   52.9460   16.9080   -6.7270 C   0  0  0  0  0  1  0  0  0  0  0  0
   50.9180   16.4440   -5.3650 C   0  0  0  0  0  3  0  0  0  0  0  0
   50.2140   16.1850   -4.1660 C   0  0  0  0  0  0  0  0  0  0  0  0
   50.9690   16.1400   -2.9720 C   0  0  0  0  0  3  0  0  0  0  0  0
   52.3460   16.3610   -2.9760 C   0  0  0  0  0  3  0  0  0  0  0  0
   48.7160   15.9710   -4.1640 C   0  0  0  0  0  0  0  0  0  0  0  0
   48.1520   14.6940   -4.4120 C   0  0  0  0  0  3  0  0  0  0  0  0
   46.7690   14.5030   -4.4190 C   0  0  0  0  0  3  0  0  0  0  0  0
   45.9080   15.5690   -4.1750 C   0  0  0  0  0  3  0  0  0  0  0  0
   46.4300   16.8390   -3.9200 C   0  0  0  0  0  0  0  0  0  0  0  0
   47.8170   17.0390   -3.9200 C   0  0  0  0  0  3  0  0  0  0  0  0
   45.3280   18.2180   -3.5960 S   0  0  0  0  0  0  0  0  0  0  0  0
   45.7570   19.3580   -4.5340 O   0  0  0  0  0  0  0  0  0  0  0  0
   45.7570   18.8480   -2.2610 O   0  0  0  0  0  0  0  0  0  0  0  0
   43.5080   18.1250   -3.6200 C   0  0  0  0  0  2  0  0  0  0  0  0
   43.0170   16.8270   -2.9930 C   0  0  0  0  0  1  0  0  0  0  0  0
   55.4060   18.9110   -2.9930 C   0  0  2  0  0  3  0  0  0  0  0  0
   54.5690   19.9720   -2.2810 C   0  0  0  0  0  0  0  0  0  0  0  0
   54.3480   21.2810   -2.7530 C   0  0  0  0  0  0  0  0  0  0  0  0
   54.8860   21.9460   -3.9860 C   0  0  0  0  0  1  0  0  0  0  0  0
   53.3360   22.0870   -1.6780 S   0  0  0  0  0  0  0  0  0  0  0  0
   53.1490   20.8060   -0.6150 C   0  0  0  0  0  0  0  0  0  0  0  0
   52.3160   20.8230    0.6230 C   0  0  0  0  0  1  0  0  0  0  0  0
   53.8810   19.7230   -1.0760 C   0  0  0  0  0  3  0  0  0  0  0  0
   55.6330   19.2430   -4.4830 C   0  0  0  0  0  2  0  0  0  0  0  0
   57.1120   19.1210   -4.8890 C   0  0  0  0  0  2  0  0  0  0  0  0
   57.9900   20.0220   -4.0250 C   0  0  0  0  0  1  0  0  0  0  0  0
  1  2  1  0  0  0  0
  2  3  2  0  0  0  0
  4  2  2  0  0  0  0
  5 10  1  0  0  0  0
  5  2  1  0  0  0  0
  6  5  2  0  0  0  0
  7  6  1  0  0  0  0
  7  9  1  0  0  0  0
  8  7  1  0  0  0  0
  9 10  2  0  0  0  0
 11  1  1  0  0  0  0
 12 11  1  0  0  0  0
 12 18  1  0  0  0  0
 13 15  1  0  0  0  0
 13 12  2  0  0  0  0
 14 13  1  0  0  0  0
 15 16  2  0  0  0  0
 16 19  1  0  0  0  0
 16 17  1  0  0  0  0
 18 17  2  0  0  0  0
 19 24  1  0  0  0  0
 20 19  2  0  0  0  0
 21 20  1  0  0  0  0
 21 22  2  0  0  0  0
 22 23  1  0  0  0  0
 23 24  2  0  0  0  0
 23 25  1  0  0  0  0
 25 27  2  0  0  0  0
 26 25  2  0  0  0  0
 28 25  1  0  0  0  0
 28 29  1  0  0  0  0
 30 38  1  6  0  0  0
 30  1  1  0  0  0  0
 30 31  1  0  0  0  0
 31 37  1  0  0  0  0
 32 31  2  0  0  0  0
 32 34  1  0  0  0  0
 33 32  1  0  0  0  0
 34 35  1  0  0  0  0
 35 36  1  0  0  0  0
 37 35  2  0  0  0  0
 39 38  1  0  0  0  0
 39 40  1  0  0  0  0
M  END
>  <POSE>
4

>  <SCORE>
-7.206

>  <RMSD_LB_BP>
2.155

>  <RMSD_UB_BP>
5.015

$$$$
/content/4EXS_VS/DOCKING/CLC-0000194/CLC-0000194_output.pdbqt
 OpenBabel03062504413D

 40 43  0  0  1  0  0  0  0  0999 V2000
   55.0980   17.1840   -3.6650 N   0  0  0  0  0  0  0  0  0  0  0  0
   55.6860   17.9330   -5.1910 S   0  0  0  0  0  0  0  0  0  0  0  0
   54.6730   17.6020   -6.2980 O   0  0  0  0  0  0  0  0  0  0  0  0
   56.8760   17.0670   -5.6270 O   0  0  0  0  0  0  0  0  0  0  0  0
   56.2630   19.6240   -5.1960 C   0  0  0  0  0  0  0  0  0  0  0  0
   57.5350   20.0530   -4.8920 C   0  0  0  0  0  3  0  0  0  0  0  0
   57.5360   21.3930   -4.9850 N   0  0  0  0  0  0  0  0  0  0  0  0
   58.6670   22.2790   -4.7410 C   0  0  0  0  0  1  0  0  0  0  0  0
   56.2870   21.7500   -5.3390 C   0  0  0  0  0  3  0  0  0  0  0  0
   55.4750   20.6810   -5.4740 N   0  0  0  0  0  0  0  0  0  0  0  0
   54.1990   18.0750   -2.8930 C   0  0  0  0  0  2  0  0  0  0  0  0
   52.7460   17.7170   -3.1280 C   0  0  0  0  0  0  0  0  0  0  0  0
   51.6810   18.4320   -2.5260 C   0  0  0  0  0  0  0  0  0  0  0  0
   51.8850   19.6340   -1.6350 C   0  0  0  0  0  1  0  0  0  0  0  0
   50.3580   18.0210   -2.7530 C   0  0  0  0  0  3  0  0  0  0  0  0
   50.0460   16.9180   -3.5810 C   0  0  0  0  0  0  0  0  0  0  0  0
   51.1270   16.2400   -4.1870 C   0  0  0  0  0  3  0  0  0  0  0  0
   52.4470   16.6320   -3.9610 C   0  0  0  0  0  3  0  0  0  0  0  0
   48.6140   16.4810   -3.8040 C   0  0  0  0  0  0  0  0  0  0  0  0
   48.2950   15.1480   -4.1650 C   0  0  0  0  0  3  0  0  0  0  0  0
   46.9740   14.7520   -4.3790 C   0  0  0  0  0  3  0  0  0  0  0  0
   45.9320   15.6630   -4.2360 C   0  0  0  0  0  3  0  0  0  0  0  0
   46.2090   16.9830   -3.8750 C   0  0  0  0  0  0  0  0  0  0  0  0
   47.5340   17.3900   -3.6670 C   0  0  0  0  0  3  0  0  0  0  0  0
   44.8710   18.1650   -3.6800 S   0  0  0  0  0  0  0  0  0  0  0  0
   45.1570   19.3220   -4.6510 O   0  0  0  0  0  0  0  0  0  0  0  0
   45.1050   18.9130   -2.3580 O   0  0  0  0  0  0  0  0  0  0  0  0
   43.0990   17.7580   -3.7960 C   0  0  0  0  0  2  0  0  0  0  0  0
   42.7430   16.5890   -2.8870 C   0  0  0  0  0  1  0  0  0  0  0  0
   56.1190   16.5310   -2.7980 C   0  0  2  0  0  3  0  0  0  0  0  0
   55.9740   15.0130   -2.7080 C   0  0  0  0  0  0  0  0  0  0  0  0
   56.9350   14.0800   -3.1440 C   0  0  0  0  0  0  0  0  0  0  0  0
   58.2560   14.3230   -3.8140 C   0  0  0  0  0  1  0  0  0  0  0  0
   56.3800   12.5270   -2.8110 S   0  0  0  0  0  0  0  0  0  0  0  0
   54.9370   13.0010   -2.1040 C   0  0  0  0  0  0  0  0  0  0  0  0
   53.9090   12.0810   -1.5350 C   0  0  0  0  0  1  0  0  0  0  0  0
   54.8570   14.3840   -2.1210 C   0  0  0  0  0  3  0  0  0  0  0  0
   56.1930   17.1980   -1.4080 C   0  0  0  0  0  2  0  0  0  0  0  0
   57.5190   17.9450   -1.1890 C   0  0  0  0  0  2  0  0  0  0  0  0
   58.6490   16.9700   -0.8750 C   0  0  0  0  0  1  0  0  0  0  0  0
  1 11  1  0  0  0  0
  1 30  1  0  0  0  0
  2  1  1  0  0  0  0
  3  2  2  0  0  0  0
  4  2  2  0  0  0  0
  5  2  1  0  0  0  0
  5  6  2  0  0  0  0
  7  6  1  0  0  0  0
  7  8  1  0  0  0  0
  9  7  1  0  0  0  0
 10  9  2  0  0  0  0
 10  5  1  0  0  0  0
 12 11  1  0  0  0  0
 12 13  1  0  0  0  0
 13 14  1  0  0  0  0
 15 13  2  0  0  0  0
 16 15  1  0  0  0  0
 17 18  1  0  0  0  0
 17 16  2  0  0  0  0
 18 12  2  0  0  0  0
 19 24  1  0  0  0  0
 19 16  1  0  0  0  0
 20 19  2  0  0  0  0
 21 22  2  0  0  0  0
 21 20  1  0  0  0  0
 22 23  1  0  0  0  0
 23 25  1  0  0  0  0
 23 24  2  0  0  0  0
 25 27  2  0  0  0  0
 26 25  2  0  0  0  0
 28 25  1  0  0  0  0
 28 29  1  0  0  0  0
 30 31  1  0  0  0  0
 30 38  1  1  0  0  0
 31 37  1  0  0  0  0
 32 34  1  0  0  0  0
 32 31  2  0  0  0  0
 33 32  1  0  0  0  0
 34 35  1  0  0  0  0
 35 36  1  0  0  0  0
 37 35  2  0  0  0  0
 38 39  1  0  0  0  0
 39 40  1  0  0  0  0
M  END
>  <POSE>
5

>  <SCORE>
-7.163

>  <RMSD_LB_BP>
2.435

>  <RMSD_UB_BP>
3.913

$$$$
/content/4EXS_VS/DOCKING/CLC-0000194/CLC-0000194_output.pdbqt
 OpenBabel03062504413D

 40 43  0  0  1  0  0  0  0  0999 V2000
   55.3740   18.3310   -3.3530 N   0  0  0  0  0  0  0  0  0  0  0  0
   55.6840   19.6950   -4.4860 S   0  0  0  0  0  0  0  0  0  0  0  0
   56.9230   20.4500   -3.9820 O   0  0  0  0  0  0  0  0  0  0  0  0
   54.5830   20.7210   -4.1820 O   0  0  0  0  0  0  0  0  0  0  0  0
   55.6470   19.4210   -6.2500 C   0  0  0  0  0  0  0  0  0  0  0  0
   55.9940   18.2600   -6.9030 C   0  0  0  0  0  3  0  0  0  0  0  0
   55.8560   18.4870   -8.2200 N   0  0  0  0  0  0  0  0  0  0  0  0
   56.1210   17.5410   -9.2960 C   0  0  0  0  0  1  0  0  0  0  0  0
   55.4330   19.7600   -8.3430 C   0  0  0  0  0  3  0  0  0  0  0  0
   55.2980   20.3650   -7.1450 N   0  0  0  0  0  0  0  0  0  0  0  0
   54.4300   18.6840   -2.2670 C   0  0  0  0  0  2  0  0  0  0  0  0
   53.0220   18.2390   -2.6030 C   0  0  0  0  0  0  0  0  0  0  0  0
   51.8760   18.9390   -2.1530 C   0  0  0  0  0  0  0  0  0  0  0  0
   51.9440   20.2080   -1.3390 C   0  0  0  0  0  1  0  0  0  0  0  0
   50.5980   18.4470   -2.4660 C   0  0  0  0  0  3  0  0  0  0  0  0
   50.4130   17.2750   -3.2350 C   0  0  0  0  0  0  0  0  0  0  0  0
   51.5750   16.6120   -3.6900 C   0  0  0  0  0  3  0  0  0  0  0  0
   52.8490   17.0840   -3.3770 C   0  0  0  0  0  3  0  0  0  0  0  0
   49.0280   16.7520   -3.5520 C   0  0  0  0  0  0  0  0  0  0  0  0
   48.8160   15.4020   -3.9270 C   0  0  0  0  0  3  0  0  0  0  0  0
   47.5390   14.9260   -4.2280 C   0  0  0  0  0  3  0  0  0  0  0  0
   46.4370   15.7730   -4.1590 C   0  0  0  0  0  3  0  0  0  0  0  0
   46.6080   17.1070   -3.7860 C   0  0  0  0  0  0  0  0  0  0  0  0
   47.8880   17.5930   -3.4910 C   0  0  0  0  0  3  0  0  0  0  0  0
   45.1910   18.2050   -3.6870 S   0  0  0  0  0  0  0  0  0  0  0  0
   45.4880   19.3960   -4.6110 O   0  0  0  0  0  0  0  0  0  0  0  0
   45.2680   18.9370   -2.3380 O   0  0  0  0  0  0  0  0  0  0  0  0
   43.4610   17.7000   -3.9590 C   0  0  0  0  0  2  0  0  0  0  0  0
   43.0150   16.6860   -2.9140 C   0  0  0  0  0  1  0  0  0  0  0  0
   56.5660   17.5950   -2.8430 C   0  0  2  0  0  3  0  0  0  0  0  0
   56.4810   16.0810   -3.0200 C   0  0  0  0  0  0  0  0  0  0  0  0
   57.1980   15.3350   -3.9770 C   0  0  0  0  0  0  0  0  0  0  0  0
   58.1420   15.8160   -5.0390 C   0  0  0  0  0  1  0  0  0  0  0  0
   56.8330   13.7040   -3.7850 S   0  0  0  0  0  0  0  0  0  0  0  0
   55.7850   13.9070   -2.4930 C   0  0  0  0  0  0  0  0  0  0  0  0
   55.0750   12.8090   -1.7740 C   0  0  0  0  0  1  0  0  0  0  0  0
   55.6940   15.2560   -2.1910 C   0  0  0  0  0  3  0  0  0  0  0  0
   56.9030   18.0000   -1.3920 C   0  0  0  0  0  2  0  0  0  0  0  0
   58.3880   17.7850   -1.0560 C   0  0  0  0  0  2  0  0  0  0  0  0
   59.2840   18.4160   -2.1180 C   0  0  0  0  0  1  0  0  0  0  0  0
  1 30  1  0  0  0  0
  1 11  1  0  0  0  0
  2  4  2  0  0  0  0
  2  3  2  0  0  0  0
  2  1  1  0  0  0  0
  5  2  1  0  0  0  0
  6  5  2  0  0  0  0
  7  6  1  0  0  0  0
  8  7  1  0  0  0  0
  9  7  1  0  0  0  0
  9 10  2  0  0  0  0
 10  5  1  0  0  0  0
 12 11  1  0  0  0  0
 12 13  1  0  0  0  0
 13 14  1  0  0  0  0
 15 13  2  0  0  0  0
 16 15  1  0  0  0  0
 17 18  1  0  0  0  0
 17 16  2  0  0  0  0
 18 12  2  0  0  0  0
 19 24  1  0  0  0  0
 19 16  1  0  0  0  0
 20 19  2  0  0  0  0
 21 22  2  0  0  0  0
 21 20  1  0  0  0  0
 22 23  1  0  0  0  0
 23 25  1  0  0  0  0
 23 24  2  0  0  0  0
 25 27  2  0  0  0  0
 26 25  2  0  0  0  0
 28 25  1  0  0  0  0
 28 29  1  0  0  0  0
 30 38  1  1  0  0  0
 31 30  1  0  0  0  0
 31 37  1  0  0  0  0
 32 34  1  0  0  0  0
 32 31  2  0  0  0  0
 33 32  1  0  0  0  0
 34 35  1  0  0  0  0
 35 37  2  0  0  0  0
 35 36  1  0  0  0  0
 38 39  1  0  0  0  0
 40 39  1  0  0  0  0
M  END
>  <POSE>
6

>  <SCORE>
-7.082

>  <RMSD_LB_BP>
2.095

>  <RMSD_UB_BP>
4.220

$$$$
/content/4EXS_VS/DOCKING/CLC-0000194/CLC-0000194_output.pdbqt
 OpenBabel03062504413D

 40 43  0  0  1  0  0  0  0  0999 V2000
   54.8440   18.3020   -4.3330 N   0  0  0  0  0  0  0  0  0  0  0  0
   54.4960   19.1270   -2.7720 S   0  0  0  0  0  0  0  0  0  0  0  0
   52.9900   19.4300   -2.7280 O   0  0  0  0  0  0  0  0  0  0  0  0
   55.0660   20.5430   -2.9340 O   0  0  0  0  0  0  0  0  0  0  0  0
   55.1680   18.4820   -1.2480 C   0  0  0  0  0  0  0  0  0  0  0  0
   56.2760   17.6770   -1.1210 C   0  0  0  0  0  3  0  0  0  0  0  0
   56.4160   17.3940    0.1840 N   0  0  0  0  0  0  0  0  0  0  0  0
   57.4520   16.5640    0.7860 C   0  0  0  0  0  1  0  0  0  0  0  0
   55.4080   18.0230    0.8190 C   0  0  0  0  0  3  0  0  0  0  0  0
   54.6170   18.7000   -0.0380 N   0  0  0  0  0  0  0  0  0  0  0  0
   54.5460   16.8510   -4.2990 C   0  0  0  0  0  2  0  0  0  0  0  0
   53.0520   16.6020   -4.3340 C   0  0  0  0  0  0  0  0  0  0  0  0
   52.2950   16.6860   -5.5290 C   0  0  0  0  0  0  0  0  0  0  0  0
   52.9020   16.9880   -6.8780 C   0  0  0  0  0  1  0  0  0  0  0  0
   50.9060   16.4840   -5.4830 C   0  0  0  0  0  3  0  0  0  0  0  0
   50.2310   16.1810   -4.2780 C   0  0  0  0  0  0  0  0  0  0  0  0
   51.0160   16.0790   -3.1070 C   0  0  0  0  0  3  0  0  0  0  0  0
   52.3950   16.2890   -3.1380 C   0  0  0  0  0  3  0  0  0  0  0  0
   48.7320   15.9790   -4.2450 C   0  0  0  0  0  0  0  0  0  0  0  0
   48.1510   14.7090   -4.4880 C   0  0  0  0  0  3  0  0  0  0  0  0
   46.7670   14.5290   -4.4670 C   0  0  0  0  0  3  0  0  0  0  0  0
   45.9210   15.6000   -4.1980 C   0  0  0  0  0  3  0  0  0  0  0  0
   46.4590   16.8640   -3.9470 C   0  0  0  0  0  0  0  0  0  0  0  0
   47.8470   17.0530   -3.9750 C   0  0  0  0  0  3  0  0  0  0  0  0
   45.3750   18.2510   -3.5910 S   0  0  0  0  0  0  0  0  0  0  0  0
   45.7530   19.3710   -4.5740 O   0  0  0  0  0  0  0  0  0  0  0  0
   45.8750   18.9060   -2.2940 O   0  0  0  0  0  0  0  0  0  0  0  0
   43.5570   18.1590   -3.5160 C   0  0  0  0  0  2  0  0  0  0  0  0
   43.0300   17.0090   -4.3650 C   0  0  0  0  0  1  0  0  0  0  0  0
   56.1620   18.5900   -4.9670 C   0  0  2  0  0  3  0  0  0  0  0  0
   56.1180   19.7070   -6.0080 C   0  0  0  0  0  0  0  0  0  0  0  0
   56.8830   20.8890   -5.9610 C   0  0  0  0  0  0  0  0  0  0  0  0
   57.8510   21.3490   -4.9110 C   0  0  0  0  0  1  0  0  0  0  0  0
   56.5500   21.8110   -7.3280 S   0  0  0  0  0  0  0  0  0  0  0  0
   55.4550   20.7380   -8.0040 C   0  0  0  0  0  0  0  0  0  0  0  0
   54.7470   20.9280   -9.3030 C   0  0  0  0  0  1  0  0  0  0  0  0
   55.3230   19.6400   -7.1700 C   0  0  0  0  0  3  0  0  0  0  0  0
   56.8200   17.3030   -5.5120 C   0  0  0  0  0  2  0  0  0  0  0  0
   58.3530   17.4110   -5.5680 C   0  0  0  0  0  2  0  0  0  0  0  0
   58.8380   17.5600   -7.0070 C   0  0  0  0  0  1  0  0  0  0  0  0
  1 11  1  0  0  0  0
  1  2  1  0  0  0  0
  2  3  2  0  0  0  0
  2  5  1  0  0  0  0
  4  2  2  0  0  0  0
  5  6  2  0  0  0  0
  5 10  1  0  0  0  0
  6  7  1  0  0  0  0
  7  8  1  0  0  0  0
  7  9  1  0  0  0  0
 10  9  2  0  0  0  0
 12 11  1  0  0  0  0
 12 18  1  0  0  0  0
 13 15  1  0  0  0  0
 13 12  2  0  0  0  0
 14 13  1  0  0  0  0
 15 16  2  0  0  0  0
 16 19  1  0  0  0  0
 16 17  1  0  0  0  0
 18 17  2  0  0  0  0
 19 24  1  0  0  0  0
 20 21  1  0  0  0  0
 20 19  2  0  0  0  0
 21 22  2  0  0  0  0
 22 23  1  0  0  0  0
 23 25  1  0  0  0  0
 24 23  2  0  0  0  0
 25 28  1  0  0  0  0
 25 27  2  0  0  0  0
 26 25  2  0  0  0  0
 29 28  1  0  0  0  0
 30 38  1  6  0  0  0
 30  1  1  0  0  0  0
 31 32  2  0  0  0  0
 31 30  1  0  0  0  0
 32 33  1  0  0  0  0
 34 32  1  0  0  0  0
 35 34  1  0  0  0  0
 35 37  2  0  0  0  0
 36 35  1  0  0  0  0
 37 31  1  0  0  0  0
 39 38  1  0  0  0  0
 40 39  1  0  0  0  0
M  END
>  <POSE>
7

>  <SCORE>
-7.026

>  <RMSD_LB_BP>
2.271

>  <RMSD_UB_BP>
2.932

$$$$
/content/4EXS_VS/DOCKING/CLC-0000194/CLC-0000194_output.pdbqt
 OpenBabel03062504413D

 40 43  0  0  1  0  0  0  0  0999 V2000
   55.0470   18.4250   -4.0390 N   0  0  0  0  0  0  0  0  0  0  0  0
   55.4440   20.1680   -4.2460 S   0  0  0  0  0  0  0  0  0  0  0  0
   56.4580   20.5510   -3.1570 O   0  0  0  0  0  0  0  0  0  0  0  0
   54.2000   20.9210   -3.7540 O   0  0  0  0  0  0  0  0  0  0  0  0
   55.8180   20.8150   -5.8690 C   0  0  0  0  0  0  0  0  0  0  0  0
   57.0390   21.2780   -6.3010 C   0  0  0  0  0  3  0  0  0  0  0  0
   56.8800   21.7020   -7.5660 N   0  0  0  0  0  0  0  0  0  0  0  0
   57.9070   22.2810   -8.4230 C   0  0  0  0  0  1  0  0  0  0  0  0
   55.5860   21.4920   -7.8760 C   0  0  0  0  0  3  0  0  0  0  0  0
   54.9020   20.9490   -6.8480 N   0  0  0  0  0  0  0  0  0  0  0  0
   54.3360   18.1420   -2.7700 C   0  0  0  0  0  2  0  0  0  0  0  0
   52.8880   17.7800   -3.0270 C   0  0  0  0  0  0  0  0  0  0  0  0
   51.8110   18.5150   -2.4720 C   0  0  0  0  0  0  0  0  0  0  0  0
   51.9980   19.7430   -1.6130 C   0  0  0  0  0  1  0  0  0  0  0  0
   50.4920   18.1000   -2.7170 C   0  0  0  0  0  3  0  0  0  0  0  0
   50.1960   16.9730   -3.5180 C   0  0  0  0  0  0  0  0  0  0  0  0
   51.2900   16.2750   -4.0780 C   0  0  0  0  0  3  0  0  0  0  0  0
   52.6040   16.6710   -3.8330 C   0  0  0  0  0  3  0  0  0  0  0  0
   48.7690   16.5330   -3.7600 C   0  0  0  0  0  0  0  0  0  0  0  0
   48.4650   15.2200   -4.2000 C   0  0  0  0  0  3  0  0  0  0  0  0
   47.1470   14.8210   -4.4320 C   0  0  0  0  0  3  0  0  0  0  0  0
   46.0950   15.7090   -4.2290 C   0  0  0  0  0  3  0  0  0  0  0  0
   46.3580   17.0080   -3.7900 C   0  0  0  0  0  0  0  0  0  0  0  0
   47.6780   17.4180   -3.5640 C   0  0  0  0  0  3  0  0  0  0  0  0
   45.0060   18.1580   -3.5190 S   0  0  0  0  0  0  0  0  0  0  0  0
   45.1350   19.2540   -4.5900 O   0  0  0  0  0  0  0  0  0  0  0  0
   45.3600   19.0030   -2.2840 O   0  0  0  0  0  0  0  0  0  0  0  0
   43.2490   17.6910   -3.4010 C   0  0  0  0  0  2  0  0  0  0  0  0
   42.7460   17.1110   -4.7170 C   0  0  0  0  0  1  0  0  0  0  0  0
   56.1440   17.4490   -4.2970 C   0  0  2  0  0  3  0  0  0  0  0  0
   56.6530   17.4570   -5.7370 C   0  0  0  0  0  0  0  0  0  0  0  0
   55.8590   17.2300   -6.8790 C   0  0  0  0  0  0  0  0  0  0  0  0
   54.3990   16.8950   -6.9650 C   0  0  0  0  0  1  0  0  0  0  0  0
   56.8200   17.3770   -8.2510 S   0  0  0  0  0  0  0  0  0  0  0  0
   58.2390   17.7410   -7.4380 C   0  0  0  0  0  0  0  0  0  0  0  0
   59.5560   18.0260   -8.0790 C   0  0  0  0  0  1  0  0  0  0  0  0
   57.9910   17.7470   -6.0750 C   0  0  0  0  0  3  0  0  0  0  0  0
   55.7660   16.0320   -3.8150 C   0  0  0  0  0  2  0  0  0  0  0  0
   56.9640   15.2850   -3.2050 C   0  0  0  0  0  2  0  0  0  0  0  0
   57.7140   16.1720   -2.2160 C   0  0  0  0  0  1  0  0  0  0  0  0
  1 11  1  0  0  0  0
  2  1  1  0  0  0  0
  2  4  2  0  0  0  0
  2  3  2  0  0  0  0
  5  2  1  0  0  0  0
  6  5  2  0  0  0  0
  7  6  1  0  0  0  0
  8  7  1  0  0  0  0
  9  7  1  0  0  0  0
  9 10  2  0  0  0  0
 10  5  1  0  0  0  0
 12 11  1  0  0  0  0
 12 13  1  0  0  0  0
 13 14  1  0  0  0  0
 15 13  2  0  0  0  0
 16 15  1  0  0  0  0
 17 18  1  0  0  0  0
 17 16  2  0  0  0  0
 18 12  2  0  0  0  0
 19 24  1  0  0  0  0
 19 16  1  0  0  0  0
 20 19  2  0  0  0  0
 21 22  2  0  0  0  0
 21 20  1  0  0  0  0
 22 23  1  0  0  0  0
 23 24  2  0  0  0  0
 23 25  1  0  0  0  0
 25 28  1  0  0  0  0
 25 27  2  0  0  0  0
 26 25  2  0  0  0  0
 29 28  1  0  0  0  0
 30  1  1  0  0  0  0
 30 38  1  6  0  0  0
 31 30  1  0  0  0  0
 32 31  2  0  0  0  0
 33 32  1  0  0  0  0
 34 35  1  0  0  0  0
 34 32  1  0  0  0  0
 35 37  2  0  0  0  0
 36 35  1  0  0  0  0
 37 31  1  0  0  0  0
 38 39  1  0  0  0  0
 39 40  1  0  0  0  0
M  END
>  <POSE>
8

>  <SCORE>
-6.989

>  <RMSD_LB_BP>
2.100

>  <RMSD_UB_BP>
3.455

$$$$
/content/4EXS_VS/DOCKING/CLC-0000194/CLC-0000194_output.pdbqt
 OpenBabel03062504413D

 40 43  0  0  1  0  0  0  0  0999 V2000
   55.1270   17.6200   -2.9410 N   0  0  0  0  0  0  0  0  0  0  0  0
   56.1780   16.5090   -1.9920 S   0  0  0  0  0  0  0  0  0  0  0  0
   55.8570   15.0720   -2.4290 O   0  0  0  0  0  0  0  0  0  0  0  0
   55.5870   16.5140   -0.5760 O   0  0  0  0  0  0  0  0  0  0  0  0
   57.9210   16.8580   -1.8140 C   0  0  0  0  0  0  0  0  0  0  0  0
   58.9570   15.9850   -2.0540 C   0  0  0  0  0  3  0  0  0  0  0  0
   60.0980   16.6330   -1.7690 N   0  0  0  0  0  0  0  0  0  0  0  0
   61.4490   16.0950   -1.8670 C   0  0  0  0  0  1  0  0  0  0  0  0
   59.7430   17.8690   -1.3680 C   0  0  0  0  0  3  0  0  0  0  0  0
   58.4050   18.0390   -1.3810 N   0  0  0  0  0  0  0  0  0  0  0  0
   54.7120   17.0500   -4.2440 C   0  0  0  0  0  2  0  0  0  0  0  0
   53.2260   16.7590   -4.2630 C   0  0  0  0  0  0  0  0  0  0  0  0
   52.4850   16.6680   -5.4670 C   0  0  0  0  0  0  0  0  0  0  0  0
   53.1040   16.8070   -6.8370 C   0  0  0  0  0  1  0  0  0  0  0  0
   51.1010   16.4370   -5.4110 C   0  0  0  0  0  3  0  0  0  0  0  0
   50.4160   16.2760   -4.1840 C   0  0  0  0  0  0  0  0  0  0  0  0
   51.1850   16.3490   -3.0010 C   0  0  0  0  0  3  0  0  0  0  0  0
   52.5590   16.5880   -3.0440 C   0  0  0  0  0  3  0  0  0  0  0  0
   48.9210   16.0420   -4.1430 C   0  0  0  0  0  0  0  0  0  0  0  0
   48.3710   14.7460   -4.3070 C   0  0  0  0  0  3  0  0  0  0  0  0
   46.9910   14.5350   -4.2780 C   0  0  0  0  0  3  0  0  0  0  0  0
   46.1200   15.6010   -4.0790 C   0  0  0  0  0  3  0  0  0  0  0  0
   46.6270   16.8900   -3.9070 C   0  0  0  0  0  0  0  0  0  0  0  0
   48.0100   17.1100   -3.9440 C   0  0  0  0  0  3  0  0  0  0  0  0
   45.5100   18.2710   -3.6420 S   0  0  0  0  0  0  0  0  0  0  0  0
   45.9590   19.3930   -4.5920 O   0  0  0  0  0  0  0  0  0  0  0  0
   45.8990   18.9310   -2.3100 O   0  0  0  0  0  0  0  0  0  0  0  0
   43.6920   18.1680   -3.7140 C   0  0  0  0  0  2  0  0  0  0  0  0
   43.1850   16.9190   -3.0060 C   0  0  0  0  0  1  0  0  0  0  0  0
   55.5810   19.0340   -3.0650 C   0  0  2  0  0  3  0  0  0  0  0  0
   54.6740   20.0400   -2.3590 C   0  0  0  0  0  0  0  0  0  0  0  0
   54.3560   21.3240   -2.8430 C   0  0  0  0  0  0  0  0  0  0  0  0
   54.8370   22.0130   -4.0850 C   0  0  0  0  0  1  0  0  0  0  0  0
   53.2950   22.0660   -1.7690 S   0  0  0  0  0  0  0  0  0  0  0  0
   53.2060   20.7850   -0.6920 C   0  0  0  0  0  0  0  0  0  0  0  0
   52.3820   20.7550    0.5510 C   0  0  0  0  0  1  0  0  0  0  0  0
   54.0120   19.7540   -1.1470 C   0  0  0  0  0  3  0  0  0  0  0  0
   55.8470   19.4150   -4.5380 C   0  0  0  0  0  2  0  0  0  0  0  0
   57.3450   19.3900   -4.8850 C   0  0  0  0  0  2  0  0  0  0  0  0
   58.1120   20.4240   -4.0660 C   0  0  0  0  0  1  0  0  0  0  0  0
  1  2  1  0  0  0  0
  2  5  1  0  0  0  0
  2  4  2  0  0  0  0
  3  2  2  0  0  0  0
  5 10  1  0  0  0  0
  6  5  2  0  0  0  0
  6  7  1  0  0  0  0
  7  9  1  0  0  0  0
  8  7  1  0  0  0  0
 10  9  2  0  0  0  0
 11  1  1  0  0  0  0
 12 11  1  0  0  0  0
 12 18  1  0  0  0  0
 13 15  1  0  0  0  0
 13 12  2  0  0  0  0
 14 13  1  0  0  0  0
 15 16  2  0  0  0  0
 16 19  1  0  0  0  0
 16 17  1  0  0  0  0
 18 17  2  0  0  0  0
 19 24  1  0  0  0  0
 20 21  1  0  0  0  0
 20 19  2  0  0  0  0
 21 22  2  0  0  0  0
 22 23  1  0  0  0  0
 23 25  1  0  0  0  0
 24 23  2  0  0  0  0
 25 27  2  0  0  0  0
 26 25  2  0  0  0  0
 28 25  1  0  0  0  0
 28 29  1  0  0  0  0
 30 38  1  6  0  0  0
 30  1  1  0  0  0  0
 30 31  1  0  0  0  0
 31 37  1  0  0  0  0
 32 31  2  0  0  0  0
 32 34  1  0  0  0  0
 33 32  1  0  0  0  0
 34 35  1  0  0  0  0
 35 36  1  0  0  0  0
 37 35  2  0  0  0  0
 39 38  1  0  0  0  0
 39 40  1  0  0  0  0
M  END
>  <POSE>
9

>  <SCORE>
-6.974

>  <RMSD_LB_BP>
2.300

>  <RMSD_UB_BP>
4.796

$$$$
