MODEL 1
REMARK VINA RESULT:    -7.876      0.000      0.000
REMARK INTER + INTRA:         -14.602
REMARK INTER:                 -12.207
REMARK INTRA:                  -2.395
REMARK UNBOUND:                -1.661
REMARK  11 active torsions:
REMARK  status: ('A' for Active; 'I' for Inactive)
REMARK    1  A    between atoms: C_3  and  C_2 
REMARK    2  A    between atoms: C_4  and  C_3 
REMARK    3  A    between atoms: C_4  and  C_6 
REMARK    4  A    between atoms: C_4  and  N_5 
REMARK    5  A    between atoms: S_7  and  N_5 
REMARK    6  A    between atoms: N_5  and  C_8 
REMARK    7  A    between atoms: S_7  and  C_11 
REMARK    8  A    between atoms: C_8  and  C_19 
REMARK    9  A    between atoms: C_29  and  C_30 
REMARK   10  A    between atoms: C_34  and  S_36 
REMARK   11  A    between atoms: S_36  and  C_37 
ROOT
ATOM      1  N   UNL d   1      54.705  17.595  -3.777  0.00  0.00    -0.192 NA
ENDROOT
BRANCH   1   2
ATOM      2  S   UNL d   1      55.265  19.227  -3.265  0.00  0.00     0.263 S 
ATOM      3  O   UNL d   1      55.786  19.956  -4.514  0.00  0.00    -0.204 OA
ATOM      4  O   UNL d   1      56.579  18.979  -2.512  0.00  0.00    -0.204 OA
BRANCH   2   5
ATOM      5  C   UNL d   1      54.247  20.228  -2.192  0.00  0.00     0.183 A 
ATOM      6  C   UNL d   1      53.802  19.885  -0.936  0.00  0.00     0.136 A 
ATOM      7  N   UNL d   1      53.044  20.900  -0.491  0.00  0.00    -0.353 N 
ATOM      8  C   UNL d   1      52.356  20.971   0.792  0.00  0.00     0.156 C 
ATOM      9  C   UNL d   1      53.043  21.829  -1.466  0.00  0.00     0.210 A 
ATOM     10  N   UNL d   1      53.773  21.442  -2.532  0.00  0.00    -0.229 NA
ENDBRANCH   2   5
ENDBRANCH   1   2
BRANCH   1  11
ATOM     11  C   UNL d   1      54.111  16.814  -2.666  0.00  0.00     0.147 C 
BRANCH  11  12
ATOM     12  C   UNL d   1      52.634  16.572  -2.899  0.00  0.00    -0.038 A 
ATOM     13  C   UNL d   1      52.028  15.310  -2.683  0.00  0.00    -0.054 A 
ATOM     14  C   UNL d   1      52.776  14.106  -2.165  0.00  0.00     0.049 C 
ATOM     15  C   UNL d   1      50.661  15.144  -2.959  0.00  0.00     0.019 A 
ATOM     16  C   UNL d   1      49.856  16.206  -3.434  0.00  0.00    -0.025 A 
ATOM     17  C   UNL d   1      50.484  17.459  -3.617  0.00  0.00     0.013 A 
ATOM     18  C   UNL d   1      51.843  17.633  -3.356  0.00  0.00     0.010 A 
BRANCH  16  19
ATOM     19  C   UNL d   1      48.388  16.005  -3.739  0.00  0.00    -0.025 A 
ATOM     20  C   UNL d   1      47.895  14.765  -4.216  0.00  0.00     0.012 A 
ATOM     21  C   UNL d   1      46.540  14.587  -4.506  0.00  0.00     0.002 A 
ATOM     22  C   UNL d   1      45.638  15.630  -4.325  0.00  0.00     0.023 A 
ATOM     23  C   UNL d   1      46.088  16.864  -3.849  0.00  0.00     0.060 A 
ATOM     24  C   UNL d   1      47.447  17.051  -3.565  0.00  0.00     0.035 A 
BRANCH  23  25
ATOM     25  S   UNL d   1      44.929  18.213  -3.605  0.00  0.00     0.175 S 
ATOM     26  O   UNL d   1      45.303  19.307  -4.618  0.00  0.00    -0.223 OA
ATOM     27  O   UNL d   1      45.338  18.945  -2.317  0.00  0.00    -0.223 OA
BRANCH  25  28
ATOM     28  C   UNL d   1      43.115  18.042  -3.608  0.00  0.00     0.141 C 
ATOM     29  C   UNL d   1      42.691  16.684  -3.063  0.00  0.00     0.021 C 
ENDBRANCH  25  28
ENDBRANCH  23  25
ENDBRANCH  16  19
ENDBRANCH  11  12
ENDBRANCH   1  11
BRANCH   1  30
ATOM     30  C   UNL d   1      55.653  16.782  -4.590  0.00  0.00     0.108 C 
BRANCH  30  31
ATOM     31  C   UNL d   1      55.587  17.071  -6.089  0.00  0.00    -0.026 A 
ATOM     32  C   UNL d   1      56.696  17.101  -6.958  0.00  0.00    -0.013 A 
ATOM     33  C   UNL d   1      58.150  16.912  -6.643  0.00  0.00     0.057 C 
ATOM     34  S   UNL d   1      56.157  17.412  -8.521  0.00  0.00    -0.100 SA
ATOM     35  C   UNL d   1      54.529  17.499  -8.135  0.00  0.00    -0.020 A 
ATOM     36  C   UNL d   1      53.421  17.744  -9.104  0.00  0.00     0.056 C 
ATOM     37  C   UNL d   1      54.375  17.294  -6.773  0.00  0.00     0.024 A 
ENDBRANCH  30  31
BRANCH  30  38
ATOM     38  C   UNL d   1      55.522  15.276  -4.275  0.00  0.00     0.025 C 
BRANCH  38  39
ATOM     39  C   UNL d   1      56.876  14.631  -3.940  0.00  0.00    -0.003 C 
ATOM     40  C   UNL d   1      57.847  15.663  -3.373  0.00  0.00     0.005 C 
ENDBRANCH  38  39
ENDBRANCH  30  38
ENDBRANCH   1  30
TORSDOF 11
ENDMDL
MODEL 2
REMARK VINA RESULT:    -7.353      1.747      2.366
REMARK INTER + INTRA:         -13.743
REMARK INTER:                 -11.182
REMARK INTRA:                  -2.561
REMARK UNBOUND:                -1.661
REMARK  11 active torsions:
REMARK  status: ('A' for Active; 'I' for Inactive)
REMARK    1  A    between atoms: C_3  and  C_2 
REMARK    2  A    between atoms: C_4  and  C_3 
REMARK    3  A    between atoms: C_4  and  C_6 
REMARK    4  A    between atoms: C_4  and  N_5 
REMARK    5  A    between atoms: S_7  and  N_5 
REMARK    6  A    between atoms: N_5  and  C_8 
REMARK    7  A    between atoms: S_7  and  C_11 
REMARK    8  A    between atoms: C_8  and  C_19 
REMARK    9  A    between atoms: C_29  and  C_30 
REMARK   10  A    between atoms: C_34  and  S_36 
REMARK   11  A    between atoms: S_36  and  C_37 
ROOT
ATOM      1  N   UNL d   1      54.547  17.371  -3.666  0.00  0.00    -0.192 NA
ENDROOT
BRANCH   1   2
ATOM      2  S   UNL d   1      55.063  18.940  -2.951  0.00  0.00     0.263 S 
ATOM      3  O   UNL d   1      54.934  18.824  -1.424  0.00  0.00    -0.204 OA
ATOM      4  O   UNL d   1      53.917  19.914  -3.260  0.00  0.00    -0.204 OA
BRANCH   2   5
ATOM      5  C   UNL d   1      56.564  19.730  -3.512  0.00  0.00     0.183 A 
ATOM      6  C   UNL d   1      57.840  19.227  -3.405  0.00  0.00     0.136 A 
ATOM      7  N   UNL d   1      58.675  20.146  -3.917  0.00  0.00    -0.353 N 
ATOM      8  C   UNL d   1      60.126  20.046  -4.006  0.00  0.00     0.156 C 
ATOM      9  C   UNL d   1      57.905  21.174  -4.322  0.00  0.00     0.210 A 
ATOM     10  N   UNL d   1      56.597  20.950  -4.082  0.00  0.00    -0.229 NA
ENDBRANCH   2   5
ENDBRANCH   1   2
BRANCH   1  11
ATOM     11  C   UNL d   1      53.934  16.458  -2.673  0.00  0.00     0.147 C 
BRANCH  11  12
ATOM     12  C   UNL d   1      52.452  16.286  -2.934  0.00  0.00    -0.038 A 
ATOM     13  C   UNL d   1      51.751  15.105  -2.585  0.00  0.00    -0.054 A 
ATOM     14  C   UNL d   1      52.396  13.932  -1.887  0.00  0.00     0.049 C 
ATOM     15  C   UNL d   1      50.386  14.995  -2.893  0.00  0.00     0.019 A 
ATOM     16  C   UNL d   1      49.674  16.036  -3.533  0.00  0.00    -0.025 A 
ATOM     17  C   UNL d   1      50.394  17.211  -3.847  0.00  0.00     0.013 A 
ATOM     18  C   UNL d   1      51.753  17.328  -3.556  0.00  0.00     0.010 A 
BRANCH  16  19
ATOM     19  C   UNL d   1      48.205  15.894  -3.869  0.00  0.00    -0.025 A 
ATOM     20  C   UNL d   1      47.683  14.691  -4.408  0.00  0.00     0.012 A 
ATOM     21  C   UNL d   1      46.329  14.568  -4.727  0.00  0.00     0.002 A 
ATOM     22  C   UNL d   1      45.456  15.630  -4.515  0.00  0.00     0.023 A 
ATOM     23  C   UNL d   1      45.935  16.828  -3.980  0.00  0.00     0.060 A 
ATOM     24  C   UNL d   1      47.294  16.961  -3.666  0.00  0.00     0.035 A 
BRANCH  23  25
ATOM     25  S   UNL d   1      44.813  18.201  -3.696  0.00  0.00     0.175 S 
ATOM     26  O   UNL d   1      45.219  19.314  -4.676  0.00  0.00    -0.223 OA
ATOM     27  O   UNL d   1      45.241  18.883  -2.387  0.00  0.00    -0.223 OA
BRANCH  25  28
ATOM     28  C   UNL d   1      42.996  18.080  -3.705  0.00  0.00     0.141 C 
ATOM     29  C   UNL d   1      42.530  16.760  -3.104  0.00  0.00     0.021 C 
ENDBRANCH  25  28
ENDBRANCH  23  25
ENDBRANCH  16  19
ENDBRANCH  11  12
ENDBRANCH   1  11
BRANCH   1  30
ATOM     30  C   UNL d   1      55.532  16.672  -4.539  0.00  0.00     0.108 C 
BRANCH  30  31
ATOM     31  C   UNL d   1      55.458  17.081  -6.008  0.00  0.00    -0.026 A 
ATOM     32  C   UNL d   1      56.569  17.302  -6.846  0.00  0.00    -0.013 A 
ATOM     33  C   UNL d   1      58.031  17.239  -6.515  0.00  0.00     0.057 C 
ATOM     34  S   UNL d   1      56.022  17.690  -8.389  0.00  0.00    -0.100 SA
ATOM     35  C   UNL d   1      54.389  17.573  -8.035  0.00  0.00    -0.020 A 
ATOM     36  C   UNL d   1      53.275  17.785  -9.005  0.00  0.00     0.056 C 
ATOM     37  C   UNL d   1      54.238  17.235  -6.699  0.00  0.00     0.024 A 
ENDBRANCH  30  31
BRANCH  30  38
ATOM     38  C   UNL d   1      55.469  15.141  -4.351  0.00  0.00     0.025 C 
BRANCH  38  39
ATOM     39  C   UNL d   1      56.822  14.549  -3.924  0.00  0.00    -0.003 C 
ATOM     40  C   UNL d   1      57.678  15.597  -3.219  0.00  0.00     0.005 C 
ENDBRANCH  38  39
ENDBRANCH  30  38
ENDBRANCH   1  30
TORSDOF 11
ENDMDL
MODEL 3
REMARK VINA RESULT:    -7.231      2.321      4.649
REMARK INTER + INTRA:         -13.543
REMARK INTER:                 -10.809
REMARK INTRA:                  -2.733
REMARK UNBOUND:                -1.661
REMARK  11 active torsions:
REMARK  status: ('A' for Active; 'I' for Inactive)
REMARK    1  A    between atoms: C_3  and  C_2 
REMARK    2  A    between atoms: C_4  and  C_3 
REMARK    3  A    between atoms: C_4  and  C_6 
REMARK    4  A    between atoms: C_4  and  N_5 
REMARK    5  A    between atoms: S_7  and  N_5 
REMARK    6  A    between atoms: N_5  and  C_8 
REMARK    7  A    between atoms: S_7  and  C_11 
REMARK    8  A    between atoms: C_8  and  C_19 
REMARK    9  A    between atoms: C_29  and  C_30 
REMARK   10  A    between atoms: C_34  and  S_36 
REMARK   11  A    between atoms: S_36  and  C_37 
ROOT
ATOM      1  N   UNL d   1      55.427  16.686  -3.968  0.00  0.00    -0.192 NA
ENDROOT
BRANCH   1   2
ATOM      2  S   UNL d   1      56.320  16.776  -5.528  0.00  0.00     0.263 S 
ATOM      3  O   UNL d   1      56.963  15.403  -5.780  0.00  0.00    -0.204 OA
ATOM      4  O   UNL d   1      57.564  17.622  -5.226  0.00  0.00    -0.204 OA
BRANCH   2   5
ATOM      5  C   UNL d   1      55.547  17.508  -6.962  0.00  0.00     0.183 A 
ATOM      6  C   UNL d   1      55.716  18.797  -7.413  0.00  0.00     0.136 A 
ATOM      7  N   UNL d   1      54.934  18.947  -8.494  0.00  0.00    -0.353 N 
ATOM      8  C   UNL d   1      54.785  20.155  -9.296  0.00  0.00     0.156 C 
ATOM      9  C   UNL d   1      54.314  17.767  -8.681  0.00  0.00     0.210 A 
ATOM     10  N   UNL d   1      54.667  16.857  -7.749  0.00  0.00    -0.229 NA
ENDBRANCH   2   5
ENDBRANCH   1   2
BRANCH   1  11
ATOM     11  C   UNL d   1      54.604  17.890  -3.703  0.00  0.00     0.147 C 
BRANCH  11  12
ATOM     12  C   UNL d   1      53.127  17.562  -3.752  0.00  0.00    -0.038 A 
ATOM     13  C   UNL d   1      52.189  18.145  -2.865  0.00  0.00    -0.054 A 
ATOM     14  C   UNL d   1      52.559  19.172  -1.822  0.00  0.00     0.049 C 
ATOM     15  C   UNL d   1      50.839  17.764  -2.937  0.00  0.00     0.019 A 
ATOM     16  C   UNL d   1      50.375  16.822  -3.884  0.00  0.00    -0.025 A 
ATOM     17  C   UNL d   1      51.329  16.276  -4.772  0.00  0.00     0.013 A 
ATOM     18  C   UNL d   1      52.674  16.638  -4.702  0.00  0.00     0.010 A 
BRANCH  16  19
ATOM     19  C   UNL d   1      48.919  16.413  -3.939  0.00  0.00    -0.025 A 
ATOM     20  C   UNL d   1      48.537  15.067  -4.168  0.00  0.00     0.012 A 
ATOM     21  C   UNL d   1      47.192  14.696  -4.228  0.00  0.00     0.002 A 
ATOM     22  C   UNL d   1      46.190  15.647  -4.057  0.00  0.00     0.023 A 
ATOM     23  C   UNL d   1      46.531  16.981  -3.823  0.00  0.00     0.060 A 
ATOM     24  C   UNL d   1      47.878  17.361  -3.770  0.00  0.00     0.035 A 
BRANCH  23  25
ATOM     25  S   UNL d   1      45.245  18.213  -3.593  0.00  0.00     0.175 S 
ATOM     26  O   UNL d   1      45.567  19.373  -4.549  0.00  0.00    -0.223 OA
ATOM     27  O   UNL d   1      45.524  18.928  -2.263  0.00  0.00    -0.223 OA
BRANCH  25  28
ATOM     28  C   UNL d   1      43.456  17.882  -3.695  0.00  0.00     0.141 C 
ATOM     29  C   UNL d   1      43.082  16.639  -2.898  0.00  0.00     0.021 C 
ENDBRANCH  25  28
ENDBRANCH  23  25
ENDBRANCH  16  19
ENDBRANCH  11  12
ENDBRANCH   1  11
BRANCH   1  30
ATOM     30  C   UNL d   1      56.206  16.264  -2.769  0.00  0.00     0.108 C 
BRANCH  30  31
ATOM     31  C   UNL d   1      55.865  14.861  -2.272  0.00  0.00    -0.026 A 
ATOM     32  C   UNL d   1      56.802  13.912  -1.818  0.00  0.00    -0.013 A 
ATOM     33  C   UNL d   1      58.297  14.014  -1.753  0.00  0.00     0.057 C 
ATOM     34  S   UNL d   1      55.983  12.527  -1.328  0.00  0.00    -0.100 SA
ATOM     35  C   UNL d   1      54.445  13.100  -1.663  0.00  0.00    -0.020 A 
ATOM     36  C   UNL d   1      53.174  12.352  -1.435  0.00  0.00     0.056 C 
ATOM     37  C   UNL d   1      54.542  14.385  -2.173  0.00  0.00     0.024 A 
ENDBRANCH  30  31
BRANCH  30  38
ATOM     38  C   UNL d   1      56.132  17.321  -1.646  0.00  0.00     0.025 C 
BRANCH  38  39
ATOM     39  C   UNL d   1      57.483  17.512  -0.936  0.00  0.00    -0.003 C 
ATOM     40  C   UNL d   1      58.585  17.839  -1.939  0.00  0.00     0.005 C 
ENDBRANCH  38  39
ENDBRANCH  30  38
ENDBRANCH   1  30
TORSDOF 11
ENDMDL
MODEL 4
REMARK VINA RESULT:    -7.206      2.155      5.015
REMARK INTER + INTRA:         -13.500
REMARK INTER:                 -11.793
REMARK INTRA:                  -1.707
REMARK UNBOUND:                -1.661
REMARK  11 active torsions:
REMARK  status: ('A' for Active; 'I' for Inactive)
REMARK    1  A    between atoms: C_3  and  C_2 
REMARK    2  A    between atoms: C_4  and  C_3 
REMARK    3  A    between atoms: C_4  and  C_6 
REMARK    4  A    between atoms: C_4  and  N_5 
REMARK    5  A    between atoms: S_7  and  N_5 
REMARK    6  A    between atoms: N_5  and  C_8 
REMARK    7  A    between atoms: S_7  and  C_11 
REMARK    8  A    between atoms: C_8  and  C_19 
REMARK    9  A    between atoms: C_29  and  C_30 
REMARK   10  A    between atoms: C_34  and  S_36 
REMARK   11  A    between atoms: S_36  and  C_37 
ROOT
ATOM      1  N   UNL d   1      54.897  17.521  -2.814  0.00  0.00    -0.192 NA
ENDROOT
BRANCH   1   2
ATOM      2  S   UNL d   1      55.865  16.431  -1.759  0.00  0.00     0.263 S 
ATOM      3  O   UNL d   1      55.585  16.820  -0.299  0.00  0.00    -0.204 OA
ATOM      4  O   UNL d   1      57.314  16.915  -1.909  0.00  0.00    -0.204 OA
BRANCH   2   5
ATOM      5  C   UNL d   1      55.885  14.671  -2.067  0.00  0.00     0.183 A 
ATOM      6  C   UNL d   1      56.898  13.959  -2.667  0.00  0.00     0.136 A 
ATOM      7  N   UNL d   1      56.500  12.678  -2.733  0.00  0.00    -0.353 N 
ATOM      8  C   UNL d   1      57.250  11.565  -3.300  0.00  0.00     0.156 C 
ATOM      9  C   UNL d   1      55.273  12.634  -2.181  0.00  0.00     0.210 A 
ATOM     10  N   UNL d   1      54.862  13.849  -1.763  0.00  0.00    -0.229 NA
ENDBRANCH   2   5
ENDBRANCH   1   2
BRANCH   1  11
ATOM     11  C   UNL d   1      54.522  16.894  -4.103  0.00  0.00     0.147 C 
BRANCH  11  12
ATOM     12  C   UNL d   1      53.032  16.630  -4.166  0.00  0.00    -0.038 A 
ATOM     13  C   UNL d   1      52.306  16.657  -5.383  0.00  0.00    -0.054 A 
ATOM     14  C   UNL d   1      52.946  16.908  -6.727  0.00  0.00     0.049 C 
ATOM     15  C   UNL d   1      50.918  16.444  -5.365  0.00  0.00     0.019 A 
ATOM     16  C   UNL d   1      50.214  16.185  -4.166  0.00  0.00    -0.025 A 
ATOM     17  C   UNL d   1      50.969  16.140  -2.972  0.00  0.00     0.013 A 
ATOM     18  C   UNL d   1      52.346  16.361  -2.976  0.00  0.00     0.010 A 
BRANCH  16  19
ATOM     19  C   UNL d   1      48.716  15.971  -4.164  0.00  0.00    -0.025 A 
ATOM     20  C   UNL d   1      48.152  14.694  -4.412  0.00  0.00     0.012 A 
ATOM     21  C   UNL d   1      46.769  14.503  -4.419  0.00  0.00     0.002 A 
ATOM     22  C   UNL d   1      45.908  15.569  -4.175  0.00  0.00     0.023 A 
ATOM     23  C   UNL d   1      46.430  16.839  -3.920  0.00  0.00     0.060 A 
ATOM     24  C   UNL d   1      47.817  17.039  -3.920  0.00  0.00     0.035 A 
BRANCH  23  25
ATOM     25  S   UNL d   1      45.328  18.218  -3.596  0.00  0.00     0.175 S 
ATOM     26  O   UNL d   1      45.757  19.358  -4.534  0.00  0.00    -0.223 OA
ATOM     27  O   UNL d   1      45.757  18.848  -2.261  0.00  0.00    -0.223 OA
BRANCH  25  28
ATOM     28  C   UNL d   1      43.508  18.125  -3.620  0.00  0.00     0.141 C 
ATOM     29  C   UNL d   1      43.017  16.827  -2.993  0.00  0.00     0.021 C 
ENDBRANCH  25  28
ENDBRANCH  23  25
ENDBRANCH  16  19
ENDBRANCH  11  12
ENDBRANCH   1  11
BRANCH   1  30
ATOM     30  C   UNL d   1      55.406  18.911  -2.993  0.00  0.00     0.108 C 
BRANCH  30  31
ATOM     31  C   UNL d   1      54.569  19.972  -2.281  0.00  0.00    -0.026 A 
ATOM     32  C   UNL d   1      54.348  21.281  -2.753  0.00  0.00    -0.013 A 
ATOM     33  C   UNL d   1      54.886  21.946  -3.986  0.00  0.00     0.057 C 
ATOM     34  S   UNL d   1      53.336  22.087  -1.678  0.00  0.00    -0.100 SA
ATOM     35  C   UNL d   1      53.149  20.806  -0.615  0.00  0.00    -0.020 A 
ATOM     36  C   UNL d   1      52.316  20.823   0.623  0.00  0.00     0.056 C 
ATOM     37  C   UNL d   1      53.881  19.723  -1.076  0.00  0.00     0.024 A 
ENDBRANCH  30  31
BRANCH  30  38
ATOM     38  C   UNL d   1      55.633  19.243  -4.483  0.00  0.00     0.025 C 
BRANCH  38  39
ATOM     39  C   UNL d   1      57.112  19.121  -4.889  0.00  0.00    -0.003 C 
ATOM     40  C   UNL d   1      57.990  20.022  -4.025  0.00  0.00     0.005 C 
ENDBRANCH  38  39
ENDBRANCH  30  38
ENDBRANCH   1  30
TORSDOF 11
ENDMDL
MODEL 5
REMARK VINA RESULT:    -7.163      2.435      3.913
REMARK INTER + INTRA:         -13.431
REMARK INTER:                 -10.954
REMARK INTRA:                  -2.477
REMARK UNBOUND:                -1.661
REMARK  11 active torsions:
REMARK  status: ('A' for Active; 'I' for Inactive)
REMARK    1  A    between atoms: C_3  and  C_2 
REMARK    2  A    between atoms: C_4  and  C_3 
REMARK    3  A    between atoms: C_4  and  C_6 
REMARK    4  A    between atoms: C_4  and  N_5 
REMARK    5  A    between atoms: S_7  and  N_5 
REMARK    6  A    between atoms: N_5  and  C_8 
REMARK    7  A    between atoms: S_7  and  C_11 
REMARK    8  A    between atoms: C_8  and  C_19 
REMARK    9  A    between atoms: C_29  and  C_30 
REMARK   10  A    between atoms: C_34  and  S_36 
REMARK   11  A    between atoms: S_36  and  C_37 
ROOT
ATOM      1  N   UNL d   1      55.098  17.184  -3.665  0.00  0.00    -0.192 NA
ENDROOT
BRANCH   1   2
ATOM      2  S   UNL d   1      55.686  17.933  -5.191  0.00  0.00     0.263 S 
ATOM      3  O   UNL d   1      54.673  17.602  -6.298  0.00  0.00    -0.204 OA
ATOM      4  O   UNL d   1      56.876  17.067  -5.627  0.00  0.00    -0.204 OA
BRANCH   2   5
ATOM      5  C   UNL d   1      56.263  19.624  -5.196  0.00  0.00     0.183 A 
ATOM      6  C   UNL d   1      57.535  20.053  -4.892  0.00  0.00     0.136 A 
ATOM      7  N   UNL d   1      57.536  21.393  -4.985  0.00  0.00    -0.353 N 
ATOM      8  C   UNL d   1      58.667  22.279  -4.741  0.00  0.00     0.156 C 
ATOM      9  C   UNL d   1      56.287  21.750  -5.339  0.00  0.00     0.210 A 
ATOM     10  N   UNL d   1      55.475  20.681  -5.474  0.00  0.00    -0.229 NA
ENDBRANCH   2   5
ENDBRANCH   1   2
BRANCH   1  11
ATOM     11  C   UNL d   1      54.199  18.075  -2.893  0.00  0.00     0.147 C 
BRANCH  11  12
ATOM     12  C   UNL d   1      52.746  17.717  -3.128  0.00  0.00    -0.038 A 
ATOM     13  C   UNL d   1      51.681  18.432  -2.526  0.00  0.00    -0.054 A 
ATOM     14  C   UNL d   1      51.885  19.634  -1.635  0.00  0.00     0.049 C 
ATOM     15  C   UNL d   1      50.358  18.021  -2.753  0.00  0.00     0.019 A 
ATOM     16  C   UNL d   1      50.046  16.918  -3.581  0.00  0.00    -0.025 A 
ATOM     17  C   UNL d   1      51.127  16.240  -4.187  0.00  0.00     0.013 A 
ATOM     18  C   UNL d   1      52.447  16.632  -3.961  0.00  0.00     0.010 A 
BRANCH  16  19
ATOM     19  C   UNL d   1      48.614  16.481  -3.804  0.00  0.00    -0.025 A 
ATOM     20  C   UNL d   1      48.295  15.148  -4.165  0.00  0.00     0.012 A 
ATOM     21  C   UNL d   1      46.974  14.752  -4.379  0.00  0.00     0.002 A 
ATOM     22  C   UNL d   1      45.932  15.663  -4.236  0.00  0.00     0.023 A 
ATOM     23  C   UNL d   1      46.209  16.983  -3.875  0.00  0.00     0.060 A 
ATOM     24  C   UNL d   1      47.534  17.390  -3.667  0.00  0.00     0.035 A 
BRANCH  23  25
ATOM     25  S   UNL d   1      44.871  18.165  -3.680  0.00  0.00     0.175 S 
ATOM     26  O   UNL d   1      45.157  19.322  -4.651  0.00  0.00    -0.223 OA
ATOM     27  O   UNL d   1      45.105  18.913  -2.358  0.00  0.00    -0.223 OA
BRANCH  25  28
ATOM     28  C   UNL d   1      43.099  17.758  -3.796  0.00  0.00     0.141 C 
ATOM     29  C   UNL d   1      42.743  16.589  -2.887  0.00  0.00     0.021 C 
ENDBRANCH  25  28
ENDBRANCH  23  25
ENDBRANCH  16  19
ENDBRANCH  11  12
ENDBRANCH   1  11
BRANCH   1  30
ATOM     30  C   UNL d   1      56.119  16.531  -2.798  0.00  0.00     0.108 C 
BRANCH  30  31
ATOM     31  C   UNL d   1      55.974  15.013  -2.708  0.00  0.00    -0.026 A 
ATOM     32  C   UNL d   1      56.935  14.080  -3.144  0.00  0.00    -0.013 A 
ATOM     33  C   UNL d   1      58.256  14.323  -3.814  0.00  0.00     0.057 C 
ATOM     34  S   UNL d   1      56.380  12.527  -2.811  0.00  0.00    -0.100 SA
ATOM     35  C   UNL d   1      54.937  13.001  -2.104  0.00  0.00    -0.020 A 
ATOM     36  C   UNL d   1      53.909  12.081  -1.535  0.00  0.00     0.056 C 
ATOM     37  C   UNL d   1      54.857  14.384  -2.121  0.00  0.00     0.024 A 
ENDBRANCH  30  31
BRANCH  30  38
ATOM     38  C   UNL d   1      56.193  17.198  -1.408  0.00  0.00     0.025 C 
BRANCH  38  39
ATOM     39  C   UNL d   1      57.519  17.945  -1.189  0.00  0.00    -0.003 C 
ATOM     40  C   UNL d   1      58.649  16.970  -0.875  0.00  0.00     0.005 C 
ENDBRANCH  38  39
ENDBRANCH  30  38
ENDBRANCH   1  30
TORSDOF 11
ENDMDL
MODEL 6
REMARK VINA RESULT:    -7.082      2.095      4.220
REMARK INTER + INTRA:         -13.298
REMARK INTER:                 -10.711
REMARK INTRA:                  -2.587
REMARK UNBOUND:                -1.661
REMARK  11 active torsions:
REMARK  status: ('A' for Active; 'I' for Inactive)
REMARK    1  A    between atoms: C_3  and  C_2 
REMARK    2  A    between atoms: C_4  and  C_3 
REMARK    3  A    between atoms: C_4  and  C_6 
REMARK    4  A    between atoms: C_4  and  N_5 
REMARK    5  A    between atoms: S_7  and  N_5 
REMARK    6  A    between atoms: N_5  and  C_8 
REMARK    7  A    between atoms: S_7  and  C_11 
REMARK    8  A    between atoms: C_8  and  C_19 
REMARK    9  A    between atoms: C_29  and  C_30 
REMARK   10  A    between atoms: C_34  and  S_36 
REMARK   11  A    between atoms: S_36  and  C_37 
ROOT
ATOM      1  N   UNL d   1      55.374  18.331  -3.353  0.00  0.00    -0.192 NA
ENDROOT
BRANCH   1   2
ATOM      2  S   UNL d   1      55.684  19.695  -4.486  0.00  0.00     0.263 S 
ATOM      3  O   UNL d   1      56.923  20.450  -3.982  0.00  0.00    -0.204 OA
ATOM      4  O   UNL d   1      54.583  20.721  -4.182  0.00  0.00    -0.204 OA
BRANCH   2   5
ATOM      5  C   UNL d   1      55.647  19.421  -6.250  0.00  0.00     0.183 A 
ATOM      6  C   UNL d   1      55.994  18.260  -6.903  0.00  0.00     0.136 A 
ATOM      7  N   UNL d   1      55.856  18.487  -8.220  0.00  0.00    -0.353 N 
ATOM      8  C   UNL d   1      56.121  17.541  -9.296  0.00  0.00     0.156 C 
ATOM      9  C   UNL d   1      55.433  19.760  -8.343  0.00  0.00     0.210 A 
ATOM     10  N   UNL d   1      55.298  20.365  -7.145  0.00  0.00    -0.229 NA
ENDBRANCH   2   5
ENDBRANCH   1   2
BRANCH   1  11
ATOM     11  C   UNL d   1      54.430  18.684  -2.267  0.00  0.00     0.147 C 
BRANCH  11  12
ATOM     12  C   UNL d   1      53.022  18.239  -2.603  0.00  0.00    -0.038 A 
ATOM     13  C   UNL d   1      51.876  18.939  -2.153  0.00  0.00    -0.054 A 
ATOM     14  C   UNL d   1      51.944  20.208  -1.339  0.00  0.00     0.049 C 
ATOM     15  C   UNL d   1      50.598  18.447  -2.466  0.00  0.00     0.019 A 
ATOM     16  C   UNL d   1      50.413  17.275  -3.235  0.00  0.00    -0.025 A 
ATOM     17  C   UNL d   1      51.575  16.612  -3.690  0.00  0.00     0.013 A 
ATOM     18  C   UNL d   1      52.849  17.084  -3.377  0.00  0.00     0.010 A 
BRANCH  16  19
ATOM     19  C   UNL d   1      49.028  16.752  -3.552  0.00  0.00    -0.025 A 
ATOM     20  C   UNL d   1      48.816  15.402  -3.927  0.00  0.00     0.012 A 
ATOM     21  C   UNL d   1      47.539  14.926  -4.228  0.00  0.00     0.002 A 
ATOM     22  C   UNL d   1      46.437  15.773  -4.159  0.00  0.00     0.023 A 
ATOM     23  C   UNL d   1      46.608  17.107  -3.786  0.00  0.00     0.060 A 
ATOM     24  C   UNL d   1      47.888  17.593  -3.491  0.00  0.00     0.035 A 
BRANCH  23  25
ATOM     25  S   UNL d   1      45.191  18.205  -3.687  0.00  0.00     0.175 S 
ATOM     26  O   UNL d   1      45.488  19.396  -4.611  0.00  0.00    -0.223 OA
ATOM     27  O   UNL d   1      45.268  18.937  -2.338  0.00  0.00    -0.223 OA
BRANCH  25  28
ATOM     28  C   UNL d   1      43.461  17.700  -3.959  0.00  0.00     0.141 C 
ATOM     29  C   UNL d   1      43.015  16.686  -2.914  0.00  0.00     0.021 C 
ENDBRANCH  25  28
ENDBRANCH  23  25
ENDBRANCH  16  19
ENDBRANCH  11  12
ENDBRANCH   1  11
BRANCH   1  30
ATOM     30  C   UNL d   1      56.566  17.595  -2.843  0.00  0.00     0.108 C 
BRANCH  30  31
ATOM     31  C   UNL d   1      56.481  16.081  -3.020  0.00  0.00    -0.026 A 
ATOM     32  C   UNL d   1      57.198  15.335  -3.977  0.00  0.00    -0.013 A 
ATOM     33  C   UNL d   1      58.142  15.816  -5.039  0.00  0.00     0.057 C 
ATOM     34  S   UNL d   1      56.833  13.704  -3.785  0.00  0.00    -0.100 SA
ATOM     35  C   UNL d   1      55.785  13.907  -2.493  0.00  0.00    -0.020 A 
ATOM     36  C   UNL d   1      55.075  12.809  -1.774  0.00  0.00     0.056 C 
ATOM     37  C   UNL d   1      55.694  15.256  -2.191  0.00  0.00     0.024 A 
ENDBRANCH  30  31
BRANCH  30  38
ATOM     38  C   UNL d   1      56.903  18.000  -1.392  0.00  0.00     0.025 C 
BRANCH  38  39
ATOM     39  C   UNL d   1      58.388  17.785  -1.056  0.00  0.00    -0.003 C 
ATOM     40  C   UNL d   1      59.284  18.416  -2.118  0.00  0.00     0.005 C 
ENDBRANCH  38  39
ENDBRANCH  30  38
ENDBRANCH   1  30
TORSDOF 11
ENDMDL
MODEL 7
REMARK VINA RESULT:    -7.026      2.271      2.932
REMARK INTER + INTRA:         -13.204
REMARK INTER:                 -11.298
REMARK INTRA:                  -1.906
REMARK UNBOUND:                -1.661
REMARK  11 active torsions:
REMARK  status: ('A' for Active; 'I' for Inactive)
REMARK    1  A    between atoms: C_3  and  C_2 
REMARK    2  A    between atoms: C_4  and  C_3 
REMARK    3  A    between atoms: C_4  and  C_6 
REMARK    4  A    between atoms: C_4  and  N_5 
REMARK    5  A    between atoms: S_7  and  N_5 
REMARK    6  A    between atoms: N_5  and  C_8 
REMARK    7  A    between atoms: S_7  and  C_11 
REMARK    8  A    between atoms: C_8  and  C_19 
REMARK    9  A    between atoms: C_29  and  C_30 
REMARK   10  A    between atoms: C_34  and  S_36 
REMARK   11  A    between atoms: S_36  and  C_37 
ROOT
ATOM      1  N   UNL d   1      54.844  18.302  -4.333  0.00  0.00    -0.192 NA
ENDROOT
BRANCH   1   2
ATOM      2  S   UNL d   1      54.496  19.127  -2.772  0.00  0.00     0.263 S 
ATOM      3  O   UNL d   1      52.990  19.430  -2.728  0.00  0.00    -0.204 OA
ATOM      4  O   UNL d   1      55.066  20.543  -2.934  0.00  0.00    -0.204 OA
BRANCH   2   5
ATOM      5  C   UNL d   1      55.168  18.482  -1.248  0.00  0.00     0.183 A 
ATOM      6  C   UNL d   1      56.276  17.677  -1.121  0.00  0.00     0.136 A 
ATOM      7  N   UNL d   1      56.416  17.394   0.184  0.00  0.00    -0.353 N 
ATOM      8  C   UNL d   1      57.452  16.564   0.786  0.00  0.00     0.156 C 
ATOM      9  C   UNL d   1      55.408  18.023   0.819  0.00  0.00     0.210 A 
ATOM     10  N   UNL d   1      54.617  18.700  -0.038  0.00  0.00    -0.229 NA
ENDBRANCH   2   5
ENDBRANCH   1   2
BRANCH   1  11
ATOM     11  C   UNL d   1      54.546  16.851  -4.299  0.00  0.00     0.147 C 
BRANCH  11  12
ATOM     12  C   UNL d   1      53.052  16.602  -4.334  0.00  0.00    -0.038 A 
ATOM     13  C   UNL d   1      52.295  16.686  -5.529  0.00  0.00    -0.054 A 
ATOM     14  C   UNL d   1      52.902  16.988  -6.878  0.00  0.00     0.049 C 
ATOM     15  C   UNL d   1      50.906  16.484  -5.483  0.00  0.00     0.019 A 
ATOM     16  C   UNL d   1      50.231  16.181  -4.278  0.00  0.00    -0.025 A 
ATOM     17  C   UNL d   1      51.016  16.079  -3.107  0.00  0.00     0.013 A 
ATOM     18  C   UNL d   1      52.395  16.289  -3.138  0.00  0.00     0.010 A 
BRANCH  16  19
ATOM     19  C   UNL d   1      48.732  15.979  -4.245  0.00  0.00    -0.025 A 
ATOM     20  C   UNL d   1      48.151  14.709  -4.488  0.00  0.00     0.012 A 
ATOM     21  C   UNL d   1      46.767  14.529  -4.467  0.00  0.00     0.002 A 
ATOM     22  C   UNL d   1      45.921  15.600  -4.198  0.00  0.00     0.023 A 
ATOM     23  C   UNL d   1      46.459  16.864  -3.947  0.00  0.00     0.060 A 
ATOM     24  C   UNL d   1      47.847  17.053  -3.975  0.00  0.00     0.035 A 
BRANCH  23  25
ATOM     25  S   UNL d   1      45.375  18.251  -3.591  0.00  0.00     0.175 S 
ATOM     26  O   UNL d   1      45.753  19.371  -4.574  0.00  0.00    -0.223 OA
ATOM     27  O   UNL d   1      45.875  18.906  -2.294  0.00  0.00    -0.223 OA
BRANCH  25  28
ATOM     28  C   UNL d   1      43.557  18.159  -3.516  0.00  0.00     0.141 C 
ATOM     29  C   UNL d   1      43.030  17.009  -4.365  0.00  0.00     0.021 C 
ENDBRANCH  25  28
ENDBRANCH  23  25
ENDBRANCH  16  19
ENDBRANCH  11  12
ENDBRANCH   1  11
BRANCH   1  30
ATOM     30  C   UNL d   1      56.162  18.590  -4.967  0.00  0.00     0.108 C 
BRANCH  30  31
ATOM     31  C   UNL d   1      56.118  19.707  -6.008  0.00  0.00    -0.026 A 
ATOM     32  C   UNL d   1      56.883  20.889  -5.961  0.00  0.00    -0.013 A 
ATOM     33  C   UNL d   1      57.851  21.349  -4.911  0.00  0.00     0.057 C 
ATOM     34  S   UNL d   1      56.550  21.811  -7.328  0.00  0.00    -0.100 SA
ATOM     35  C   UNL d   1      55.455  20.738  -8.004  0.00  0.00    -0.020 A 
ATOM     36  C   UNL d   1      54.747  20.928  -9.303  0.00  0.00     0.056 C 
ATOM     37  C   UNL d   1      55.323  19.640  -7.170  0.00  0.00     0.024 A 
ENDBRANCH  30  31
BRANCH  30  38
ATOM     38  C   UNL d   1      56.820  17.303  -5.512  0.00  0.00     0.025 C 
BRANCH  38  39
ATOM     39  C   UNL d   1      58.353  17.411  -5.568  0.00  0.00    -0.003 C 
ATOM     40  C   UNL d   1      58.838  17.560  -7.007  0.00  0.00     0.005 C 
ENDBRANCH  38  39
ENDBRANCH  30  38
ENDBRANCH   1  30
TORSDOF 11
ENDMDL
MODEL 8
REMARK VINA RESULT:    -6.989      2.100      3.455
REMARK INTER + INTRA:         -13.144
REMARK INTER:                 -11.021
REMARK INTRA:                  -2.123
REMARK UNBOUND:                -1.661
REMARK  11 active torsions:
REMARK  status: ('A' for Active; 'I' for Inactive)
REMARK    1  A    between atoms: C_3  and  C_2 
REMARK    2  A    between atoms: C_4  and  C_3 
REMARK    3  A    between atoms: C_4  and  C_6 
REMARK    4  A    between atoms: C_4  and  N_5 
REMARK    5  A    between atoms: S_7  and  N_5 
REMARK    6  A    between atoms: N_5  and  C_8 
REMARK    7  A    between atoms: S_7  and  C_11 
REMARK    8  A    between atoms: C_8  and  C_19 
REMARK    9  A    between atoms: C_29  and  C_30 
REMARK   10  A    between atoms: C_34  and  S_36 
REMARK   11  A    between atoms: S_36  and  C_37 
ROOT
ATOM      1  N   UNL d   1      55.047  18.425  -4.039  0.00  0.00    -0.192 NA
ENDROOT
BRANCH   1   2
ATOM      2  S   UNL d   1      55.444  20.168  -4.246  0.00  0.00     0.263 S 
ATOM      3  O   UNL d   1      56.458  20.551  -3.157  0.00  0.00    -0.204 OA
ATOM      4  O   UNL d   1      54.200  20.921  -3.754  0.00  0.00    -0.204 OA
BRANCH   2   5
ATOM      5  C   UNL d   1      55.818  20.815  -5.869  0.00  0.00     0.183 A 
ATOM      6  C   UNL d   1      57.039  21.278  -6.301  0.00  0.00     0.136 A 
ATOM      7  N   UNL d   1      56.880  21.702  -7.566  0.00  0.00    -0.353 N 
ATOM      8  C   UNL d   1      57.907  22.281  -8.423  0.00  0.00     0.156 C 
ATOM      9  C   UNL d   1      55.586  21.492  -7.876  0.00  0.00     0.210 A 
ATOM     10  N   UNL d   1      54.902  20.949  -6.848  0.00  0.00    -0.229 NA
ENDBRANCH   2   5
ENDBRANCH   1   2
BRANCH   1  11
ATOM     11  C   UNL d   1      54.336  18.142  -2.770  0.00  0.00     0.147 C 
BRANCH  11  12
ATOM     12  C   UNL d   1      52.888  17.780  -3.027  0.00  0.00    -0.038 A 
ATOM     13  C   UNL d   1      51.811  18.515  -2.472  0.00  0.00    -0.054 A 
ATOM     14  C   UNL d   1      51.998  19.743  -1.613  0.00  0.00     0.049 C 
ATOM     15  C   UNL d   1      50.492  18.100  -2.717  0.00  0.00     0.019 A 
ATOM     16  C   UNL d   1      50.196  16.973  -3.518  0.00  0.00    -0.025 A 
ATOM     17  C   UNL d   1      51.290  16.275  -4.078  0.00  0.00     0.013 A 
ATOM     18  C   UNL d   1      52.604  16.671  -3.833  0.00  0.00     0.010 A 
BRANCH  16  19
ATOM     19  C   UNL d   1      48.769  16.533  -3.760  0.00  0.00    -0.025 A 
ATOM     20  C   UNL d   1      48.465  15.220  -4.200  0.00  0.00     0.012 A 
ATOM     21  C   UNL d   1      47.147  14.821  -4.432  0.00  0.00     0.002 A 
ATOM     22  C   UNL d   1      46.095  15.709  -4.229  0.00  0.00     0.023 A 
ATOM     23  C   UNL d   1      46.358  17.008  -3.790  0.00  0.00     0.060 A 
ATOM     24  C   UNL d   1      47.678  17.418  -3.564  0.00  0.00     0.035 A 
BRANCH  23  25
ATOM     25  S   UNL d   1      45.006  18.158  -3.519  0.00  0.00     0.175 S 
ATOM     26  O   UNL d   1      45.135  19.254  -4.590  0.00  0.00    -0.223 OA
ATOM     27  O   UNL d   1      45.360  19.003  -2.284  0.00  0.00    -0.223 OA
BRANCH  25  28
ATOM     28  C   UNL d   1      43.249  17.691  -3.401  0.00  0.00     0.141 C 
ATOM     29  C   UNL d   1      42.746  17.111  -4.717  0.00  0.00     0.021 C 
ENDBRANCH  25  28
ENDBRANCH  23  25
ENDBRANCH  16  19
ENDBRANCH  11  12
ENDBRANCH   1  11
BRANCH   1  30
ATOM     30  C   UNL d   1      56.144  17.449  -4.297  0.00  0.00     0.108 C 
BRANCH  30  31
ATOM     31  C   UNL d   1      56.653  17.457  -5.737  0.00  0.00    -0.026 A 
ATOM     32  C   UNL d   1      55.859  17.230  -6.879  0.00  0.00    -0.013 A 
ATOM     33  C   UNL d   1      54.399  16.895  -6.965  0.00  0.00     0.057 C 
ATOM     34  S   UNL d   1      56.820  17.377  -8.251  0.00  0.00    -0.100 SA
ATOM     35  C   UNL d   1      58.239  17.741  -7.438  0.00  0.00    -0.020 A 
ATOM     36  C   UNL d   1      59.556  18.026  -8.079  0.00  0.00     0.056 C 
ATOM     37  C   UNL d   1      57.991  17.747  -6.075  0.00  0.00     0.024 A 
ENDBRANCH  30  31
BRANCH  30  38
ATOM     38  C   UNL d   1      55.766  16.032  -3.815  0.00  0.00     0.025 C 
BRANCH  38  39
ATOM     39  C   UNL d   1      56.964  15.285  -3.205  0.00  0.00    -0.003 C 
ATOM     40  C   UNL d   1      57.714  16.172  -2.216  0.00  0.00     0.005 C 
ENDBRANCH  38  39
ENDBRANCH  30  38
ENDBRANCH   1  30
TORSDOF 11
ENDMDL
MODEL 9
REMARK VINA RESULT:    -6.974      2.300      4.796
REMARK INTER + INTRA:         -13.120
REMARK INTER:                 -11.458
REMARK INTRA:                  -1.661
REMARK UNBOUND:                -1.661
REMARK  11 active torsions:
REMARK  status: ('A' for Active; 'I' for Inactive)
REMARK    1  A    between atoms: C_3  and  C_2 
REMARK    2  A    between atoms: C_4  and  C_3 
REMARK    3  A    between atoms: C_4  and  C_6 
REMARK    4  A    between atoms: C_4  and  N_5 
REMARK    5  A    between atoms: S_7  and  N_5 
REMARK    6  A    between atoms: N_5  and  C_8 
REMARK    7  A    between atoms: S_7  and  C_11 
REMARK    8  A    between atoms: C_8  and  C_19 
REMARK    9  A    between atoms: C_29  and  C_30 
REMARK   10  A    between atoms: C_34  and  S_36 
REMARK   11  A    between atoms: S_36  and  C_37 
ROOT
ATOM      1  N   UNL d   1      55.127  17.620  -2.941  0.00  0.00    -0.192 NA
ENDROOT
BRANCH   1   2
ATOM      2  S   UNL d   1      56.178  16.509  -1.992  0.00  0.00     0.263 S 
ATOM      3  O   UNL d   1      55.857  15.072  -2.429  0.00  0.00    -0.204 OA
ATOM      4  O   UNL d   1      55.587  16.514  -0.576  0.00  0.00    -0.204 OA
BRANCH   2   5
ATOM      5  C   UNL d   1      57.921  16.858  -1.814  0.00  0.00     0.183 A 
ATOM      6  C   UNL d   1      58.957  15.985  -2.054  0.00  0.00     0.136 A 
ATOM      7  N   UNL d   1      60.098  16.633  -1.769  0.00  0.00    -0.353 N 
ATOM      8  C   UNL d   1      61.449  16.095  -1.867  0.00  0.00     0.156 C 
ATOM      9  C   UNL d   1      59.743  17.869  -1.368  0.00  0.00     0.210 A 
ATOM     10  N   UNL d   1      58.405  18.039  -1.381  0.00  0.00    -0.229 NA
ENDBRANCH   2   5
ENDBRANCH   1   2
BRANCH   1  11
ATOM     11  C   UNL d   1      54.712  17.050  -4.244  0.00  0.00     0.147 C 
BRANCH  11  12
ATOM     12  C   UNL d   1      53.226  16.759  -4.263  0.00  0.00    -0.038 A 
ATOM     13  C   UNL d   1      52.485  16.668  -5.467  0.00  0.00    -0.054 A 
ATOM     14  C   UNL d   1      53.104  16.807  -6.837  0.00  0.00     0.049 C 
ATOM     15  C   UNL d   1      51.101  16.437  -5.411  0.00  0.00     0.019 A 
ATOM     16  C   UNL d   1      50.416  16.276  -4.184  0.00  0.00    -0.025 A 
ATOM     17  C   UNL d   1      51.185  16.349  -3.001  0.00  0.00     0.013 A 
ATOM     18  C   UNL d   1      52.559  16.588  -3.044  0.00  0.00     0.010 A 
BRANCH  16  19
ATOM     19  C   UNL d   1      48.921  16.042  -4.143  0.00  0.00    -0.025 A 
ATOM     20  C   UNL d   1      48.371  14.746  -4.307  0.00  0.00     0.012 A 
ATOM     21  C   UNL d   1      46.991  14.535  -4.278  0.00  0.00     0.002 A 
ATOM     22  C   UNL d   1      46.120  15.601  -4.079  0.00  0.00     0.023 A 
ATOM     23  C   UNL d   1      46.627  16.890  -3.907  0.00  0.00     0.060 A 
ATOM     24  C   UNL d   1      48.010  17.110  -3.944  0.00  0.00     0.035 A 
BRANCH  23  25
ATOM     25  S   UNL d   1      45.510  18.271  -3.642  0.00  0.00     0.175 S 
ATOM     26  O   UNL d   1      45.959  19.393  -4.592  0.00  0.00    -0.223 OA
ATOM     27  O   UNL d   1      45.899  18.931  -2.310  0.00  0.00    -0.223 OA
BRANCH  25  28
ATOM     28  C   UNL d   1      43.692  18.168  -3.714  0.00  0.00     0.141 C 
ATOM     29  C   UNL d   1      43.185  16.919  -3.006  0.00  0.00     0.021 C 
ENDBRANCH  25  28
ENDBRANCH  23  25
ENDBRANCH  16  19
ENDBRANCH  11  12
ENDBRANCH   1  11
BRANCH   1  30
ATOM     30  C   UNL d   1      55.581  19.034  -3.065  0.00  0.00     0.108 C 
BRANCH  30  31
ATOM     31  C   UNL d   1      54.674  20.040  -2.359  0.00  0.00    -0.026 A 
ATOM     32  C   UNL d   1      54.356  21.324  -2.843  0.00  0.00    -0.013 A 
ATOM     33  C   UNL d   1      54.837  22.013  -4.085  0.00  0.00     0.057 C 
ATOM     34  S   UNL d   1      53.295  22.066  -1.769  0.00  0.00    -0.100 SA
ATOM     35  C   UNL d   1      53.206  20.785  -0.692  0.00  0.00    -0.020 A 
ATOM     36  C   UNL d   1      52.382  20.755   0.551  0.00  0.00     0.056 C 
ATOM     37  C   UNL d   1      54.012  19.754  -1.147  0.00  0.00     0.024 A 
ENDBRANCH  30  31
BRANCH  30  38
ATOM     38  C   UNL d   1      55.847  19.415  -4.538  0.00  0.00     0.025 C 
BRANCH  38  39
ATOM     39  C   UNL d   1      57.345  19.390  -4.885  0.00  0.00    -0.003 C 
ATOM     40  C   UNL d   1      58.112  20.424  -4.066  0.00  0.00     0.005 C 
ENDBRANCH  38  39
ENDBRANCH  30  38
ENDBRANCH   1  30
TORSDOF 11
ENDMDL
