REMARK  11 active torsions:
REMARK  status: ('A' for Active; 'I' for Inactive)
REMARK    1  A    between atoms: C_3  and  C_2 
REMARK    2  A    between atoms: C_4  and  C_3 
REMARK    3  A    between atoms: C_4  and  C_6 
REMARK    4  A    between atoms: C_4  and  N_5 
REMARK    5  A    between atoms: S_7  and  N_5 
REMARK    6  A    between atoms: N_5  and  C_8 
REMARK    7  A    between atoms: S_7  and  C_11 
REMARK    8  A    between atoms: C_8  and  C_19 
REMARK    9  A    between atoms: C_29  and  C_30 
REMARK   10  A    between atoms: C_34  and  S_36 
REMARK   11  A    between atoms: S_36  and  C_37 
ROOT
ATOM      1  N   UNL d   1       3.547   0.589   1.283  0.00  0.00    -0.192 NA
ENDROOT
BRANCH   1   2
ATOM      2  S   UNL d   1       2.039   1.419   0.759  0.00  0.00     0.263 S 
ATOM      3  O   UNL d   1       2.050   2.834   1.358  0.00  0.00    -0.204 OA
ATOM      4  O   UNL d   1       0.920   0.770   1.585  0.00  0.00    -0.204 OA
BRANCH   2   5
ATOM      5  C   UNL d   1       1.519   1.340  -0.948  0.00  0.00     0.183 A 
ATOM      6  C   UNL d   1       1.096   2.396  -1.722  0.00  0.00     0.136 A 
ATOM      7  N   UNL d   1       0.769   1.901  -2.927  0.00  0.00    -0.353 N 
ATOM      8  C   UNL d   1       0.261   2.655  -4.066  0.00  0.00     0.156 C 
ATOM      9  C   UNL d   1       0.996   0.575  -2.867  0.00  0.00     0.210 A 
ATOM     10  N   UNL d   1       1.456   0.196  -1.657  0.00  0.00    -0.229 NA
ENDBRANCH   2   5
ENDBRANCH   1   2
BRANCH   1  11
ATOM     11  C   UNL d   1       3.704   0.552   2.756  0.00  0.00     0.147 C 
BRANCH  11  12
ATOM     12  C   UNL d   1       2.693  -0.382   3.388  0.00  0.00    -0.038 A 
ATOM     13  C   UNL d   1       2.608  -1.754   3.045  0.00  0.00    -0.054 A 
ATOM     14  C   UNL d   1       3.534  -2.423   2.058  0.00  0.00     0.049 C 
ATOM     15  C   UNL d   1       1.619  -2.555   3.639  0.00  0.00     0.019 A 
ATOM     16  C   UNL d   1       0.706  -2.040   4.588  0.00  0.00    -0.025 A 
ATOM     17  C   UNL d   1       0.831  -0.674   4.928  0.00  0.00     0.013 A 
ATOM     18  C   UNL d   1       1.802   0.134   4.337  0.00  0.00     0.010 A 
BRANCH  16  19
ATOM     19  C   UNL d   1      -0.362  -2.915   5.208  0.00  0.00    -0.025 A 
ATOM     20  C   UNL d   1      -0.670  -4.193   4.678  0.00  0.00     0.012 A 
ATOM     21  C   UNL d   1      -1.663  -4.993   5.247  0.00  0.00     0.002 A 
ATOM     22  C   UNL d   1      -2.373  -4.551   6.359  0.00  0.00     0.023 A 
ATOM     23  C   UNL d   1      -2.091  -3.300   6.911  0.00  0.00     0.060 A 
ATOM     24  C   UNL d   1      -1.102  -2.489   6.340  0.00  0.00     0.035 A 
BRANCH  23  25
ATOM     25  S   UNL d   1      -2.997  -2.725   8.351  0.00  0.00     0.175 S 
ATOM     26  O   UNL d   1      -1.956  -2.169   9.336  0.00  0.00    -0.223 OA
ATOM     27  O   UNL d   1      -3.428  -3.965   9.150  0.00  0.00    -0.223 OA
BRANCH  25  28
ATOM     28  C   UNL d   1      -4.401  -1.565   8.303  0.00  0.00     0.141 C 
ATOM     29  C   UNL d   1      -4.920  -1.273   9.705  0.00  0.00     0.021 C 
ENDBRANCH  25  28
ENDBRANCH  23  25
ENDBRANCH  16  19
ENDBRANCH  11  12
ENDBRANCH   1  11
BRANCH   1  30
ATOM     30  C   UNL d   1       4.808   0.985   0.594  0.00  0.00     0.108 C 
BRANCH  30  31
ATOM     31  C   UNL d   1       5.170   2.459   0.765  0.00  0.00    -0.026 A 
ATOM     32  C   UNL d   1       6.200   2.950   1.591  0.00  0.00    -0.013 A 
ATOM     33  C   UNL d   1       7.125   2.196   2.500  0.00  0.00     0.057 C 
ATOM     34  S   UNL d   1       6.272   4.624   1.439  0.00  0.00    -0.100 SA
ATOM     35  C   UNL d   1       5.026   4.756   0.327  0.00  0.00    -0.020 A 
ATOM     36  C   UNL d   1       4.544   6.028  -0.286  0.00  0.00     0.056 C 
ATOM     37  C   UNL d   1       4.523   3.493   0.058  0.00  0.00     0.024 A 
ENDBRANCH  30  31
BRANCH  30  38
ATOM     38  C   UNL d   1       4.805   0.548  -0.887  0.00  0.00     0.025 C 
BRANCH  38  39
ATOM     39  C   UNL d   1       6.179   0.733  -1.552  0.00  0.00    -0.003 C 
ATOM     40  C   UNL d   1       6.152   0.258  -3.002  0.00  0.00     0.005 C 
ENDBRANCH  38  39
ENDBRANCH  30  38
ENDBRANCH   1  30
TORSDOF 11
