REMARK  11 active torsions:
REMARK  status: ('A' for Active; 'I' for Inactive)
REMARK    1  A    between atoms: C_3  and  C_2 
REMARK    2  A    between atoms: C_4  and  C_3 
REMARK    3  A    between atoms: C_4  and  C_6 
REMARK    4  A    between atoms: C_4  and  N_5 
REMARK    5  A    between atoms: S_7  and  N_5 
REMARK    6  A    between atoms: N_5  and  C_8 
REMARK    7  A    between atoms: S_7  and  C_11 
REMARK    8  A    between atoms: C_8  and  C_19 
REMARK    9  A    between atoms: C_29  and  C_30 
REMARK   10  A    between atoms: C_34  and  S_36 
REMARK   11  A    between atoms: S_36  and  C_37 
ROOT
ATOM      1  N   UNL d   1       3.297   0.295   1.105  0.00  0.00    -0.192 NA
ENDROOT
BRANCH   1   2
ATOM      2  S   UNL d   1       2.393  -0.380   2.504  0.00  0.00     0.263 S 
ATOM      3  O   UNL d   1       2.810   0.407   3.752  0.00  0.00    -0.204 OA
ATOM      4  O   UNL d   1       2.998  -1.765   2.780  0.00  0.00    -0.204 OA
BRANCH   2   5
ATOM      5  C   UNL d   1       0.613  -0.429   2.340  0.00  0.00     0.183 A 
ATOM      6  C   UNL d   1      -0.173  -1.559   2.343  0.00  0.00     0.136 A 
ATOM      7  N   UNL d   1      -1.443  -1.164   2.160  0.00  0.00    -0.353 N 
ATOM      8  C   UNL d   1      -2.626  -2.011   2.080  0.00  0.00     0.156 C 
ATOM      9  C   UNL d   1      -1.410   0.179   2.055  0.00  0.00     0.210 A 
ATOM     10  N   UNL d   1      -0.156   0.663   2.161  0.00  0.00    -0.229 NA
ENDBRANCH   2   5
ENDBRANCH   1   2
BRANCH   1  11
ATOM     11  C   UNL d   1       3.321  -0.653  -0.028  0.00  0.00     0.147 C 
BRANCH  11  12
ATOM     12  C   UNL d   1       1.921  -0.916  -0.545  0.00  0.00    -0.038 A 
ATOM     13  C   UNL d   1       1.096   0.105  -1.073  0.00  0.00    -0.054 A 
ATOM     14  C   UNL d   1       1.540   1.542  -1.198  0.00  0.00     0.049 C 
ATOM     15  C   UNL d   1      -0.205  -0.209  -1.506  0.00  0.00     0.019 A 
ATOM     16  C   UNL d   1      -0.724  -1.525  -1.434  0.00  0.00    -0.025 A 
ATOM     17  C   UNL d   1       0.130  -2.523  -0.914  0.00  0.00     0.013 A 
ATOM     18  C   UNL d   1       1.421  -2.223  -0.483  0.00  0.00     0.010 A 
BRANCH  16  19
ATOM     19  C   UNL d   1      -2.133  -1.851  -1.892  0.00  0.00    -0.025 A 
ATOM     20  C   UNL d   1      -2.708  -3.127  -1.662  0.00  0.00     0.012 A 
ATOM     21  C   UNL d   1      -4.006  -3.424  -2.083  0.00  0.00     0.002 A 
ATOM     22  C   UNL d   1      -4.769  -2.467  -2.744  0.00  0.00     0.023 A 
ATOM     23  C   UNL d   1      -4.237  -1.201  -2.986  0.00  0.00     0.060 A 
ATOM     24  C   UNL d   1      -2.936  -0.896  -2.566  0.00  0.00     0.035 A 
BRANCH  23  25
ATOM     25  S   UNL d   1      -5.216   0.032  -3.850  0.00  0.00     0.175 S 
ATOM     26  O   UNL d   1      -4.951   1.382  -3.166  0.00  0.00    -0.223 OA
ATOM     27  O   UNL d   1      -6.678  -0.162  -3.417  0.00  0.00    -0.223 OA
BRANCH  25  28
ATOM     28  C   UNL d   1      -5.187   0.292  -5.653  0.00  0.00     0.141 C 
ATOM     29  C   UNL d   1      -6.120   1.425  -6.062  0.00  0.00     0.021 C 
ENDBRANCH  25  28
ENDBRANCH  23  25
ENDBRANCH  16  19
ENDBRANCH  11  12
ENDBRANCH   1  11
BRANCH   1  30
ATOM     30  C   UNL d   1       4.612   0.920   1.419  0.00  0.00     0.108 C 
BRANCH  30  31
ATOM     31  C   UNL d   1       5.548  -0.009   2.216  0.00  0.00    -0.026 A 
ATOM     32  C   UNL d   1       5.968   0.040   3.575  0.00  0.00    -0.013 A 
ATOM     33  C   UNL d   1       5.634   0.975   4.701  0.00  0.00     0.057 C 
ATOM     34  S   UNL d   1       7.016  -1.245   3.863  0.00  0.00    -0.100 SA
ATOM     35  C   UNL d   1       6.981  -1.875   2.319  0.00  0.00    -0.020 A 
ATOM     36  C   UNL d   1       7.735  -3.075   1.853  0.00  0.00     0.056 C 
ATOM     37  C   UNL d   1       6.146  -1.096   1.540  0.00  0.00     0.024 A 
ENDBRANCH  30  31
BRANCH  30  38
ATOM     38  C   UNL d   1       4.385   2.368   1.909  0.00  0.00     0.025 C 
BRANCH  38  39
ATOM     39  C   UNL d   1       5.694   3.169   2.027  0.00  0.00    -0.003 C 
ATOM     40  C   UNL d   1       5.420   4.604   2.467  0.00  0.00     0.005 C 
ENDBRANCH  38  39
ENDBRANCH  30  38
ENDBRANCH   1  30
TORSDOF 11
