MODEL 1
REMARK VINA RESULT:   -11.784      0.000      0.000
REMARK INTER + INTRA:         -18.064
REMARK INTER:                 -16.817
REMARK INTRA:                  -1.246
REMARK UNBOUND:                -0.079
REMARK  9 active torsions:
REMARK  status: ('A' for Active; 'I' for Inactive)
REMARK    1  A    between atoms: C_3  and  C_2 
REMARK    2  A    between atoms: C_3  and  C_5 
REMARK    3  A    between atoms: C_3  and  N_4 
REMARK    4  A    between atoms: S_6  and  N_4 
REMARK    5  A    between atoms: N_4  and  C_7 
REMARK    6  A    between atoms: S_6  and  C_10 
REMARK    7  A    between atoms: C_7  and  C_18 
REMARK    8  A    between atoms: C_28  and  C_29 
REMARK    9  A    between atoms: C_33  and  S_35 
ROOT
ATOM      1  N   UNL d   1      17.560  -4.046  59.534  0.00  0.00    -0.192 NA
ENDROOT
BRANCH   1   2
ATOM      2  S   UNL d   1      17.852  -5.768  59.136  0.00  0.00     0.263 S 
ATOM      3  O   UNL d   1      16.515  -6.334  58.636  0.00  0.00    -0.204 OA
ATOM      4  O   UNL d   1      17.952  -6.474  60.498  0.00  0.00    -0.204 OA
BRANCH   2   5
ATOM      5  C   UNL d   1      19.229  -6.227  58.092  0.00  0.00     0.183 A 
ATOM      6  C   UNL d   1      19.243  -6.199  56.717  0.00  0.00     0.136 A 
ATOM      7  N   UNL d   1      20.460  -6.609  56.321  0.00  0.00    -0.353 N 
ATOM      8  C   UNL d   1      20.942  -6.741  54.953  0.00  0.00     0.156 C 
ATOM      9  C   UNL d   1      21.153  -6.874  57.446  0.00  0.00     0.210 A 
ATOM     10  N   UNL d   1      20.422  -6.649  58.557  0.00  0.00    -0.229 NA
ENDBRANCH   2   5
ENDBRANCH   1   2
BRANCH   1  11
ATOM     11  C   UNL d   1      16.801  -3.961  60.806  0.00  0.00     0.147 C 
BRANCH  11  12
ATOM     12  C   UNL d   1      15.320  -3.720  60.569  0.00  0.00    -0.038 A 
ATOM     13  C   UNL d   1      14.283  -4.626  60.916  0.00  0.00    -0.054 A 
ATOM     14  C   UNL d   1      14.499  -5.973  61.564  0.00  0.00     0.049 C 
ATOM     15  C   UNL d   1      12.945  -4.275  60.649  0.00  0.00     0.019 A 
ATOM     16  C   UNL d   1      12.589  -3.050  60.036  0.00  0.00    -0.025 A 
ATOM     17  C   UNL d   1      13.647  -2.182  59.690  0.00  0.00     0.013 A 
ATOM     18  C   UNL d   1      14.973  -2.513  59.950  0.00  0.00     0.010 A 
BRANCH  16  19
ATOM     19  C   UNL d   1      11.139  -2.687  59.755  0.00  0.00    -0.025 A 
ATOM     20  C   UNL d   1      10.128  -3.679  59.669  0.00  0.00     0.012 A 
ATOM     21  C   UNL d   1       8.798  -3.341  59.408  0.00  0.00     0.002 A 
ATOM     22  C   UNL d   1       8.432  -2.012  59.225  0.00  0.00     0.023 A 
ATOM     23  C   UNL d   1       9.396  -1.008  59.304  0.00  0.00     0.059 A 
ATOM     24  C   UNL d   1      10.733  -1.340  59.564  0.00  0.00     0.035 A 
BRANCH  23  25
ATOM     25  S   UNL d   1       8.928   0.709  59.061  0.00  0.00     0.171 S 
ATOM     26  O   UNL d   1       9.727   1.543  60.073  0.00  0.00    -0.223 OA
ATOM     27  C   UNL d   1       8.961   1.593  57.478  0.00  0.00     0.167 C 
ATOM     28  O   UNL d   1       7.530   0.896  59.670  0.00  0.00    -0.223 OA
ENDBRANCH  23  25
ENDBRANCH  16  19
ENDBRANCH  11  12
ENDBRANCH   1  11
BRANCH   1  29
ATOM     29  C   UNL d   1      18.786  -3.191  59.468  0.00  0.00     0.108 C 
BRANCH  29  30
ATOM     30  C   UNL d   1      19.280  -2.884  60.885  0.00  0.00    -0.026 A 
ATOM     31  C   UNL d   1      18.859  -1.773  61.634  0.00  0.00    -0.013 A 
ATOM     32  C   UNL d   1      17.866  -0.727  61.248  0.00  0.00     0.057 C 
ATOM     33  S   UNL d   1      19.643  -1.766  63.122  0.00  0.00    -0.100 SA
ATOM     34  C   UNL d   1      20.530  -3.162  62.853  0.00  0.00    -0.020 A 
ATOM     35  C   UNL d   1      21.497  -3.769  63.813  0.00  0.00     0.056 C 
ATOM     36  C   UNL d   1      20.229  -3.659  61.594  0.00  0.00     0.024 A 
ENDBRANCH  29  30
BRANCH  29  37
ATOM     37  C   UNL d   1      18.609  -1.920  58.581  0.00  0.00     0.021 C 
ATOM     38  C   UNL d   1      19.942  -1.228  58.272  0.00  0.00     0.007 C 
ENDBRANCH  29  37
ENDBRANCH   1  29
TORSDOF 9
ENDMDL
MODEL 2
REMARK VINA RESULT:   -11.724      1.395      2.341
REMARK INTER + INTRA:         -17.972
REMARK INTER:                 -17.424
REMARK INTRA:                  -0.548
REMARK UNBOUND:                -0.079
REMARK  9 active torsions:
REMARK  status: ('A' for Active; 'I' for Inactive)
REMARK    1  A    between atoms: C_3  and  C_2 
REMARK    2  A    between atoms: C_3  and  C_5 
REMARK    3  A    between atoms: C_3  and  N_4 
REMARK    4  A    between atoms: S_6  and  N_4 
REMARK    5  A    between atoms: N_4  and  C_7 
REMARK    6  A    between atoms: S_6  and  C_10 
REMARK    7  A    between atoms: C_7  and  C_18 
REMARK    8  A    between atoms: C_28  and  C_29 
REMARK    9  A    between atoms: C_33  and  S_35 
ROOT
ATOM      1  N   UNL d   1      18.573  -4.515  59.818  0.00  0.00    -0.192 NA
ENDROOT
BRANCH   1   2
ATOM      2  S   UNL d   1      18.815  -6.225  59.341  0.00  0.00     0.263 S 
ATOM      3  O   UNL d   1      17.416  -6.813  59.102  0.00  0.00    -0.204 OA
ATOM      4  O   UNL d   1      19.193  -6.947  60.644  0.00  0.00    -0.204 OA
BRANCH   2   5
ATOM      5  C   UNL d   1      19.969  -6.639  58.040  0.00  0.00     0.183 A 
ATOM      6  C   UNL d   1      19.732  -6.537  56.688  0.00  0.00     0.136 A 
ATOM      7  N   UNL d   1      20.848  -6.935  56.055  0.00  0.00    -0.353 N 
ATOM      8  C   UNL d   1      21.069  -6.997  54.617  0.00  0.00     0.156 C 
ATOM      9  C   UNL d   1      21.730  -7.266  57.018  0.00  0.00     0.210 A 
ATOM     10  N   UNL d   1      21.219  -7.095  58.255  0.00  0.00    -0.229 NA
ENDBRANCH   2   5
ENDBRANCH   1   2
BRANCH   1  11
ATOM     11  C   UNL d   1      17.922  -3.785  58.703  0.00  0.00     0.147 C 
BRANCH  11  12
ATOM     12  C   UNL d   1      16.483  -3.423  59.025  0.00  0.00    -0.038 A 
ATOM     13  C   UNL d   1      16.035  -2.129  59.405  0.00  0.00    -0.054 A 
ATOM     14  C   UNL d   1      16.929  -0.920  59.556  0.00  0.00     0.049 C 
ATOM     15  C   UNL d   1      14.667  -1.924  59.669  0.00  0.00     0.019 A 
ATOM     16  C   UNL d   1      13.712  -2.964  59.580  0.00  0.00    -0.025 A 
ATOM     17  C   UNL d   1      14.194  -4.240  59.215  0.00  0.00     0.013 A 
ATOM     18  C   UNL d   1      15.543  -4.458  58.948  0.00  0.00     0.010 A 
BRANCH  16  19
ATOM     19  C   UNL d   1      12.238  -2.725  59.867  0.00  0.00    -0.025 A 
ATOM     20  C   UNL d   1      11.412  -3.746  60.405  0.00  0.00     0.012 A 
ATOM     21  C   UNL d   1      10.057  -3.524  60.664  0.00  0.00     0.002 A 
ATOM     22  C   UNL d   1       9.483  -2.286  60.398  0.00  0.00     0.023 A 
ATOM     23  C   UNL d   1      10.262  -1.257  59.871  0.00  0.00     0.059 A 
ATOM     24  C   UNL d   1      11.621  -1.474  59.607  0.00  0.00     0.035 A 
BRANCH  23  25
ATOM     25  S   UNL d   1       9.523   0.341  59.520  0.00  0.00     0.171 S 
ATOM     26  O   UNL d   1      10.250   0.919  58.297  0.00  0.00    -0.223 OA
ATOM     27  C   UNL d   1       7.749   0.652  59.298  0.00  0.00     0.167 C 
ATOM     28  O   UNL d   1      10.040   1.331  60.576  0.00  0.00    -0.223 OA
ENDBRANCH  23  25
ENDBRANCH  16  19
ENDBRANCH  11  12
ENDBRANCH   1  11
BRANCH   1  29
ATOM     29  C   UNL d   1      17.923  -4.344  61.154  0.00  0.00     0.108 C 
BRANCH  29  30
ATOM     30  C   UNL d   1      18.905  -3.686  62.128  0.00  0.00    -0.026 A 
ATOM     31  C   UNL d   1      18.570  -2.608  62.965  0.00  0.00    -0.013 A 
ATOM     32  C   UNL d   1      17.247  -1.931  63.106  0.00  0.00     0.057 C 
ATOM     33  S   UNL d   1      19.918  -2.149  63.861  0.00  0.00    -0.100 SA
ATOM     34  C   UNL d   1      20.951  -3.298  63.213  0.00  0.00    -0.020 A 
ATOM     35  C   UNL d   1      22.389  -3.467  63.572  0.00  0.00     0.056 C 
ATOM     36  C   UNL d   1      20.261  -4.061  62.283  0.00  0.00     0.024 A 
ENDBRANCH  29  30
BRANCH  29  37
ATOM     37  C   UNL d   1      17.286  -5.657  61.706  0.00  0.00     0.021 C 
ATOM     38  C   UNL d   1      15.876  -5.436  62.267  0.00  0.00     0.007 C 
ENDBRANCH  29  37
ENDBRANCH   1  29
TORSDOF 9
ENDMDL
MODEL 3
REMARK VINA RESULT:   -11.313      2.283      4.783
REMARK INTER + INTRA:         -17.345
REMARK INTER:                 -16.838
REMARK INTRA:                  -0.507
REMARK UNBOUND:                -0.079
REMARK  9 active torsions:
REMARK  status: ('A' for Active; 'I' for Inactive)
REMARK    1  A    between atoms: C_3  and  C_2 
REMARK    2  A    between atoms: C_3  and  C_5 
REMARK    3  A    between atoms: C_3  and  N_4 
REMARK    4  A    between atoms: S_6  and  N_4 
REMARK    5  A    between atoms: N_4  and  C_7 
REMARK    6  A    between atoms: S_6  and  C_10 
REMARK    7  A    between atoms: C_7  and  C_18 
REMARK    8  A    between atoms: C_28  and  C_29 
REMARK    9  A    between atoms: C_33  and  S_35 
ROOT
ATOM      1  N   UNL d   1      17.731  -3.591  60.390  0.00  0.00    -0.192 NA
ENDROOT
BRANCH   1   2
ATOM      2  S   UNL d   1      18.234  -2.069  61.190  0.00  0.00     0.263 S 
ATOM      3  O   UNL d   1      17.009  -1.143  61.175  0.00  0.00    -0.204 OA
ATOM      4  O   UNL d   1      19.124  -1.359  60.159  0.00  0.00    -0.204 OA
BRANCH   2   5
ATOM      5  C   UNL d   1      19.041  -2.119  62.785  0.00  0.00     0.183 A 
ATOM      6  C   UNL d   1      20.272  -2.673  63.048  0.00  0.00     0.136 A 
ATOM      7  N   UNL d   1      20.518  -2.497  64.358  0.00  0.00    -0.353 N 
ATOM      8  C   UNL d   1      21.702  -2.918  65.095  0.00  0.00     0.156 C 
ATOM      9  C   UNL d   1      19.449  -1.848  64.858  0.00  0.00     0.210 A 
ATOM     10  N   UNL d   1      18.519  -1.600  63.913  0.00  0.00    -0.229 NA
ENDBRANCH   2   5
ENDBRANCH   1   2
BRANCH   1  11
ATOM     11  C   UNL d   1      17.017  -3.266  59.131  0.00  0.00     0.147 C 
BRANCH  11  12
ATOM     12  C   UNL d   1      15.518  -3.138  59.344  0.00  0.00    -0.038 A 
ATOM     13  C   UNL d   1      14.656  -4.202  59.720  0.00  0.00    -0.054 A 
ATOM     14  C   UNL d   1      15.101  -5.627  59.953  0.00  0.00     0.049 C 
ATOM     15  C   UNL d   1      13.282  -3.946  59.894  0.00  0.00     0.019 A 
ATOM     16  C   UNL d   1      12.718  -2.663  59.700  0.00  0.00    -0.025 A 
ATOM     17  C   UNL d   1      13.602  -1.633  59.312  0.00  0.00     0.013 A 
ATOM     18  C   UNL d   1      14.963  -1.869  59.139  0.00  0.00     0.010 A 
BRANCH  16  19
ATOM     19  C   UNL d   1      11.233  -2.403  59.894  0.00  0.00    -0.025 A 
ATOM     20  C   UNL d   1      10.377  -3.379  60.468  0.00  0.00     0.012 A 
ATOM     21  C   UNL d   1       9.012  -3.138  60.641  0.00  0.00     0.002 A 
ATOM     22  C   UNL d   1       8.456  -1.925  60.252  0.00  0.00     0.023 A 
ATOM     23  C   UNL d   1       9.265  -0.940  59.686  0.00  0.00     0.059 A 
ATOM     24  C   UNL d   1      10.634  -1.175  59.508  0.00  0.00     0.035 A 
BRANCH  23  25
ATOM     25  S   UNL d   1       8.549   0.627  59.176  0.00  0.00     0.171 S 
ATOM     26  O   UNL d   1       9.142   1.713  60.085  0.00  0.00    -0.223 OA
ATOM     27  C   UNL d   1       8.541   1.276  57.482  0.00  0.00     0.167 C 
ATOM     28  O   UNL d   1       7.103   0.665  59.695  0.00  0.00    -0.223 OA
ENDBRANCH  23  25
ENDBRANCH  16  19
ENDBRANCH  11  12
ENDBRANCH   1  11
BRANCH   1  29
ATOM     29  C   UNL d   1      18.829  -4.598  60.256  0.00  0.00     0.108 C 
BRANCH  29  30
ATOM     30  C   UNL d   1      18.781  -5.235  58.863  0.00  0.00    -0.026 A 
ATOM     31  C   UNL d   1      19.222  -4.590  57.695  0.00  0.00    -0.013 A 
ATOM     32  C   UNL d   1      19.833  -3.234  57.568  0.00  0.00     0.057 C 
ATOM     33  S   UNL d   1      18.980  -5.598  56.370  0.00  0.00    -0.100 SA
ATOM     34  C   UNL d   1      18.314  -6.865  57.240  0.00  0.00    -0.020 A 
ATOM     35  C   UNL d   1      17.838  -8.155  56.660  0.00  0.00     0.056 C 
ATOM     36  C   UNL d   1      18.268  -6.523  58.583  0.00  0.00     0.024 A 
ENDBRANCH  29  30
BRANCH  29  37
ATOM     37  C   UNL d   1      18.860  -5.640  61.416  0.00  0.00     0.021 C 
ATOM     38  C   UNL d   1      17.515  -5.749  62.144  0.00  0.00     0.007 C 
ENDBRANCH  29  37
ENDBRANCH   1  29
TORSDOF 9
ENDMDL
MODEL 4
REMARK VINA RESULT:   -11.060      1.825      2.205
REMARK INTER + INTRA:         -16.958
REMARK INTER:                 -15.727
REMARK INTRA:                  -1.231
REMARK UNBOUND:                -0.079
REMARK  9 active torsions:
REMARK  status: ('A' for Active; 'I' for Inactive)
REMARK    1  A    between atoms: C_3  and  C_2 
REMARK    2  A    between atoms: C_3  and  C_5 
REMARK    3  A    between atoms: C_3  and  N_4 
REMARK    4  A    between atoms: S_6  and  N_4 
REMARK    5  A    between atoms: N_4  and  C_7 
REMARK    6  A    between atoms: S_6  and  C_10 
REMARK    7  A    between atoms: C_7  and  C_18 
REMARK    8  A    between atoms: C_28  and  C_29 
REMARK    9  A    between atoms: C_33  and  S_35 
ROOT
ATOM      1  N   UNL d   1      17.624  -4.423  59.761  0.00  0.00    -0.192 NA
ENDROOT
BRANCH   1   2
ATOM      2  S   UNL d   1      18.661  -3.840  58.421  0.00  0.00     0.263 S 
ATOM      3  O   UNL d   1      19.723  -2.931  59.056  0.00  0.00    -0.204 OA
ATOM      4  O   UNL d   1      17.807  -2.792  57.691  0.00  0.00    -0.204 OA
BRANCH   2   5
ATOM      5  C   UNL d   1      19.357  -5.003  57.254  0.00  0.00     0.183 A 
ATOM      6  C   UNL d   1      20.697  -5.222  57.036  0.00  0.00     0.136 A 
ATOM      7  N   UNL d   1      20.798  -6.173  56.091  0.00  0.00    -0.353 N 
ATOM      8  C   UNL d   1      22.022  -6.734  55.536  0.00  0.00     0.156 C 
ATOM      9  C   UNL d   1      19.537  -6.509  55.758  0.00  0.00     0.210 A 
ATOM     10  N   UNL d   1      18.623  -5.805  56.458  0.00  0.00    -0.229 NA
ENDBRANCH   2   5
ENDBRANCH   1   2
BRANCH   1  11
ATOM     11  C   UNL d   1      16.542  -5.273  59.205  0.00  0.00     0.147 C 
BRANCH  11  12
ATOM     12  C   UNL d   1      15.164  -4.713  59.515  0.00  0.00    -0.038 A 
ATOM     13  C   UNL d   1      14.402  -5.025  60.672  0.00  0.00    -0.054 A 
ATOM     14  C   UNL d   1      14.844  -5.971  61.765  0.00  0.00     0.049 C 
ATOM     15  C   UNL d   1      13.137  -4.428  60.844  0.00  0.00     0.019 A 
ATOM     16  C   UNL d   1      12.586  -3.530  59.899  0.00  0.00    -0.025 A 
ATOM     17  C   UNL d   1      13.365  -3.256  58.754  0.00  0.00     0.013 A 
ATOM     18  C   UNL d   1      14.617  -3.835  58.572  0.00  0.00     0.010 A 
BRANCH  16  19
ATOM     19  C   UNL d   1      11.220  -2.894  60.101  0.00  0.00    -0.025 A 
ATOM     20  C   UNL d   1      10.146  -3.613  60.687  0.00  0.00     0.012 A 
ATOM     21  C   UNL d   1       8.891  -3.026  60.868  0.00  0.00     0.002 A 
ATOM     22  C   UNL d   1       8.664  -1.712  60.473  0.00  0.00     0.023 A 
ATOM     23  C   UNL d   1       9.696  -0.972  59.895  0.00  0.00     0.059 A 
ATOM     24  C   UNL d   1      10.956  -1.555  59.710  0.00  0.00     0.035 A 
BRANCH  23  25
ATOM     25  S   UNL d   1       9.405   0.723  59.379  0.00  0.00     0.171 S 
ATOM     26  O   UNL d   1      10.358   1.010  58.209  0.00  0.00    -0.223 OA
ATOM     27  C   UNL d   1       7.790   1.429  58.953  0.00  0.00     0.167 C 
ATOM     28  O   UNL d   1      10.053   1.642  60.426  0.00  0.00    -0.223 OA
ENDBRANCH  23  25
ENDBRANCH  16  19
ENDBRANCH  11  12
ENDBRANCH   1  11
BRANCH   1  29
ATOM     29  C   UNL d   1      18.384  -5.027  60.899  0.00  0.00     0.108 C 
BRANCH  29  30
ATOM     30  C   UNL d   1      18.846  -3.924  61.856  0.00  0.00    -0.026 A 
ATOM     31  C   UNL d   1      18.109  -2.757  62.116  0.00  0.00    -0.013 A 
ATOM     32  C   UNL d   1      16.771  -2.375  61.572  0.00  0.00     0.057 C 
ATOM     33  S   UNL d   1      18.956  -1.782  63.193  0.00  0.00    -0.100 SA
ATOM     34  C   UNL d   1      20.270  -2.809  63.354  0.00  0.00    -0.020 A 
ATOM     35  C   UNL d   1      21.469  -2.551  64.202  0.00  0.00     0.056 C 
ATOM     36  C   UNL d   1      20.070  -3.934  62.567  0.00  0.00     0.024 A 
ENDBRANCH  29  30
BRANCH  29  37
ATOM     37  C   UNL d   1      19.535  -5.976  60.441  0.00  0.00     0.021 C 
ATOM     38  C   UNL d   1      19.048  -7.406  60.177  0.00  0.00     0.007 C 
ENDBRANCH  29  37
ENDBRANCH   1  29
TORSDOF 9
ENDMDL
MODEL 5
REMARK VINA RESULT:   -10.440      1.649      2.162
REMARK INTER + INTRA:         -16.011
REMARK INTER:                 -16.599
REMARK INTRA:                   0.588
REMARK UNBOUND:                -0.079
REMARK  9 active torsions:
REMARK  status: ('A' for Active; 'I' for Inactive)
REMARK    1  A    between atoms: C_3  and  C_2 
REMARK    2  A    between atoms: C_3  and  C_5 
REMARK    3  A    between atoms: C_3  and  N_4 
REMARK    4  A    between atoms: S_6  and  N_4 
REMARK    5  A    between atoms: N_4  and  C_7 
REMARK    6  A    between atoms: S_6  and  C_10 
REMARK    7  A    between atoms: C_7  and  C_18 
REMARK    8  A    between atoms: C_28  and  C_29 
REMARK    9  A    between atoms: C_33  and  S_35 
ROOT
ATOM      1  N   UNL d   1      17.954  -4.954  59.032  0.00  0.00    -0.192 NA
ENDROOT
BRANCH   1   2
ATOM      2  S   UNL d   1      18.262  -6.662  58.584  0.00  0.00     0.263 S 
ATOM      3  O   UNL d   1      16.940  -7.213  58.029  0.00  0.00    -0.204 OA
ATOM      4  O   UNL d   1      18.328  -7.413  59.923  0.00  0.00    -0.204 OA
BRANCH   2   5
ATOM      5  C   UNL d   1      19.667  -7.082  57.561  0.00  0.00     0.183 A 
ATOM      6  C   UNL d   1      19.766  -6.883  56.204  0.00  0.00     0.136 A 
ATOM      7  N   UNL d   1      20.976  -7.324  55.822  0.00  0.00    -0.353 N 
ATOM      8  C   UNL d   1      21.530  -7.317  54.474  0.00  0.00     0.156 C 
ATOM      9  C   UNL d   1      21.582  -7.776  56.937  0.00  0.00     0.210 A 
ATOM     10  N   UNL d   1      20.801  -7.641  58.028  0.00  0.00    -0.229 NA
ENDBRANCH   2   5
ENDBRANCH   1   2
BRANCH   1  11
ATOM     11  C   UNL d   1      17.174  -4.915  60.293  0.00  0.00     0.147 C 
BRANCH  11  12
ATOM     12  C   UNL d   1      15.909  -4.087  60.152  0.00  0.00    -0.038 A 
ATOM     13  C   UNL d   1      14.617  -4.495  60.580  0.00  0.00    -0.054 A 
ATOM     14  C   UNL d   1      14.308  -5.823  61.231  0.00  0.00     0.049 C 
ATOM     15  C   UNL d   1      13.524  -3.625  60.398  0.00  0.00     0.019 A 
ATOM     16  C   UNL d   1      13.659  -2.353  59.793  0.00  0.00    -0.025 A 
ATOM     17  C   UNL d   1      14.954  -1.986  59.366  0.00  0.00     0.013 A 
ATOM     18  C   UNL d   1      16.044  -2.834  59.542  0.00  0.00     0.010 A 
BRANCH  16  19
ATOM     19  C   UNL d   1      12.470  -1.425  59.606  0.00  0.00    -0.025 A 
ATOM     20  C   UNL d   1      12.627  -0.110  59.094  0.00  0.00     0.012 A 
ATOM     21  C   UNL d   1      11.531   0.740  58.927  0.00  0.00     0.002 A 
ATOM     22  C   UNL d   1      10.251   0.314  59.260  0.00  0.00     0.023 A 
ATOM     23  C   UNL d   1      10.055  -0.971  59.764  0.00  0.00     0.059 A 
ATOM     24  C   UNL d   1      11.150  -1.829  59.936  0.00  0.00     0.035 A 
BRANCH  23  25
ATOM     25  S   UNL d   1       8.403  -1.523  60.202  0.00  0.00     0.171 S 
ATOM     26  O   UNL d   1       8.560  -2.638  61.247  0.00  0.00    -0.223 OA
ATOM     27  C   UNL d   1       7.047  -0.450  60.749  0.00  0.00     0.167 C 
ATOM     28  O   UNL d   1       7.879  -2.379  59.039  0.00  0.00    -0.223 OA
ENDBRANCH  23  25
ENDBRANCH  16  19
ENDBRANCH  11  12
ENDBRANCH   1  11
BRANCH   1  29
ATOM     29  C   UNL d   1      19.177  -4.093  59.014  0.00  0.00     0.108 C 
BRANCH  29  30
ATOM     30  C   UNL d   1      19.090  -3.048  60.131  0.00  0.00    -0.026 A 
ATOM     31  C   UNL d   1      18.855  -1.682  59.906  0.00  0.00    -0.013 A 
ATOM     32  C   UNL d   1      18.615  -0.994  58.603  0.00  0.00     0.057 C 
ATOM     33  S   UNL d   1      18.859  -0.859  61.373  0.00  0.00    -0.100 SA
ATOM     34  C   UNL d   1      19.159  -2.206  62.322  0.00  0.00    -0.020 A 
ATOM     35  C   UNL d   1      19.301  -2.202  63.807  0.00  0.00     0.056 C 
ATOM     36  C   UNL d   1      19.261  -3.325  61.508  0.00  0.00     0.024 A 
ENDBRANCH  29  30
BRANCH  29  37
ATOM     37  C   UNL d   1      19.483  -3.481  57.612  0.00  0.00     0.021 C 
ATOM     38  C   UNL d   1      18.356  -3.728  56.603  0.00  0.00     0.007 C 
ENDBRANCH  29  37
ENDBRANCH   1  29
TORSDOF 9
ENDMDL
MODEL 6
REMARK VINA RESULT:   -10.200      2.336      5.434
REMARK INTER + INTRA:         -15.646
REMARK INTER:                 -14.914
REMARK INTRA:                  -0.732
REMARK UNBOUND:                -0.079
REMARK  9 active torsions:
REMARK  status: ('A' for Active; 'I' for Inactive)
REMARK    1  A    between atoms: C_3  and  C_2 
REMARK    2  A    between atoms: C_3  and  C_5 
REMARK    3  A    between atoms: C_3  and  N_4 
REMARK    4  A    between atoms: S_6  and  N_4 
REMARK    5  A    between atoms: N_4  and  C_7 
REMARK    6  A    between atoms: S_6  and  C_10 
REMARK    7  A    between atoms: C_7  and  C_18 
REMARK    8  A    between atoms: C_28  and  C_29 
REMARK    9  A    between atoms: C_33  and  S_35 
ROOT
ATOM      1  N   UNL d   1      18.278  -6.272  59.766  0.00  0.00    -0.192 NA
ENDROOT
BRANCH   1   2
ATOM      2  S   UNL d   1      18.195  -5.827  61.500  0.00  0.00     0.263 S 
ATOM      3  O   UNL d   1      18.794  -7.004  62.282  0.00  0.00    -0.204 OA
ATOM      4  O   UNL d   1      16.712  -5.980  61.873  0.00  0.00    -0.204 OA
BRANCH   2   5
ATOM      5  C   UNL d   1      18.818  -4.244  62.050  0.00  0.00     0.183 A 
ATOM      6  C   UNL d   1      18.077  -3.246  62.640  0.00  0.00     0.136 A 
ATOM      7  N   UNL d   1      18.915  -2.230  62.908  0.00  0.00    -0.353 N 
ATOM      8  C   UNL d   1      18.583  -0.958  63.534  0.00  0.00     0.156 C 
ATOM      9  C   UNL d   1      20.132  -2.623  62.482  0.00  0.00     0.210 A 
ATOM     10  N   UNL d   1      20.106  -3.861  61.947  0.00  0.00    -0.229 NA
ENDBRANCH   2   5
ENDBRANCH   1   2
BRANCH   1  11
ATOM     11  C   UNL d   1      18.412  -5.039  58.952  0.00  0.00     0.147 C 
BRANCH  11  12
ATOM     12  C   UNL d   1      17.200  -4.134  59.089  0.00  0.00    -0.038 A 
ATOM     13  C   UNL d   1      17.250  -2.719  59.201  0.00  0.00    -0.054 A 
ATOM     14  C   UNL d   1      18.521  -1.902  59.213  0.00  0.00     0.049 C 
ATOM     15  C   UNL d   1      16.048  -1.994  59.314  0.00  0.00     0.019 A 
ATOM     16  C   UNL d   1      14.780  -2.624  59.328  0.00  0.00    -0.025 A 
ATOM     17  C   UNL d   1      14.769  -4.032  59.230  0.00  0.00     0.013 A 
ATOM     18  C   UNL d   1      15.949  -4.762  59.116  0.00  0.00     0.010 A 
BRANCH  16  19
ATOM     19  C   UNL d   1      13.491  -1.826  59.449  0.00  0.00    -0.025 A 
ATOM     20  C   UNL d   1      13.485  -0.409  59.374  0.00  0.00     0.012 A 
ATOM     21  C   UNL d   1      12.299   0.320  59.489  0.00  0.00     0.002 A 
ATOM     22  C   UNL d   1      11.087  -0.332  59.681  0.00  0.00     0.023 A 
ATOM     23  C   UNL d   1      11.051  -1.724  59.759  0.00  0.00     0.059 A 
ATOM     24  C   UNL d   1      12.237  -2.462  59.646  0.00  0.00     0.035 A 
BRANCH  23  25
ATOM     25  S   UNL d   1       9.488  -2.571  60.014  0.00  0.00     0.171 S 
ATOM     26  O   UNL d   1       8.917  -2.075  61.350  0.00  0.00    -0.223 OA
ATOM     27  C   UNL d   1       8.119  -2.630  58.824  0.00  0.00     0.167 C 
ATOM     28  O   UNL d   1       9.807  -4.015  60.429  0.00  0.00    -0.223 OA
ENDBRANCH  23  25
ENDBRANCH  16  19
ENDBRANCH  11  12
ENDBRANCH   1  11
BRANCH   1  29
ATOM     29  C   UNL d   1      19.275  -7.345  59.463  0.00  0.00     0.108 C 
BRANCH  29  30
ATOM     30  C   UNL d   1      19.828  -7.153  58.047  0.00  0.00    -0.026 A 
ATOM     31  C   UNL d   1      19.104  -7.449  56.880  0.00  0.00    -0.013 A 
ATOM     32  C   UNL d   1      17.703  -7.953  56.771  0.00  0.00     0.057 C 
ATOM     33  S   UNL d   1      20.057  -7.133  55.530  0.00  0.00    -0.100 SA
ATOM     34  C   UNL d   1      21.400  -6.618  56.388  0.00  0.00    -0.020 A 
ATOM     35  C   UNL d   1      22.689  -6.168  55.785  0.00  0.00     0.056 C 
ATOM     36  C   UNL d   1      21.129  -6.685  57.746  0.00  0.00     0.024 A 
ENDBRANCH  29  30
BRANCH  29  37
ATOM     37  C   UNL d   1      18.738  -8.785  59.731  0.00  0.00     0.021 C 
ATOM     38  C   UNL d   1      19.636  -9.580  60.685  0.00  0.00     0.007 C 
ENDBRANCH  29  37
ENDBRANCH   1  29
TORSDOF 9
ENDMDL
MODEL 7
REMARK VINA RESULT:    -9.943      0.972      1.785
REMARK INTER + INTRA:         -15.253
REMARK INTER:                 -13.695
REMARK INTRA:                  -1.558
REMARK UNBOUND:                -0.079
REMARK  9 active torsions:
REMARK  status: ('A' for Active; 'I' for Inactive)
REMARK    1  A    between atoms: C_3  and  C_2 
REMARK    2  A    between atoms: C_3  and  C_5 
REMARK    3  A    between atoms: C_3  and  N_4 
REMARK    4  A    between atoms: S_6  and  N_4 
REMARK    5  A    between atoms: N_4  and  C_7 
REMARK    6  A    between atoms: S_6  and  C_10 
REMARK    7  A    between atoms: C_7  and  C_18 
REMARK    8  A    between atoms: C_28  and  C_29 
REMARK    9  A    between atoms: C_33  and  S_35 
ROOT
ATOM      1  N   UNL d   1      17.717  -4.575  59.380  0.00  0.00    -0.192 NA
ENDROOT
BRANCH   1   2
ATOM      2  S   UNL d   1      17.861  -6.321  59.003  0.00  0.00     0.263 S 
ATOM      3  O   UNL d   1      16.470  -6.785  58.547  0.00  0.00    -0.204 OA
ATOM      4  O   UNL d   1      17.942  -7.012  60.373  0.00  0.00    -0.204 OA
BRANCH   2   5
ATOM      5  C   UNL d   1      19.168  -6.903  57.931  0.00  0.00     0.183 A 
ATOM      6  C   UNL d   1      19.245  -6.704  56.572  0.00  0.00     0.136 A 
ATOM      7  N   UNL d   1      20.377  -7.289  56.146  0.00  0.00    -0.353 N 
ATOM      8  C   UNL d   1      20.882  -7.338  54.780  0.00  0.00     0.156 C 
ATOM      9  C   UNL d   1      20.959  -7.824  57.237  0.00  0.00     0.210 A 
ATOM     10  N   UNL d   1      20.238  -7.603  58.355  0.00  0.00    -0.229 NA
ENDBRANCH   2   5
ENDBRANCH   1   2
BRANCH   1  11
ATOM     11  C   UNL d   1      17.044  -4.413  60.692  0.00  0.00     0.147 C 
BRANCH  11  12
ATOM     12  C   UNL d   1      15.571  -4.077  60.537  0.00  0.00    -0.038 A 
ATOM     13  C   UNL d   1      14.499  -4.889  60.995  0.00  0.00    -0.054 A 
ATOM     14  C   UNL d   1      14.665  -6.217  61.697  0.00  0.00     0.049 C 
ATOM     15  C   UNL d   1      13.174  -4.455  60.796  0.00  0.00     0.019 A 
ATOM     16  C   UNL d   1      12.863  -3.238  60.144  0.00  0.00    -0.025 A 
ATOM     17  C   UNL d   1      13.952  -2.465  59.688  0.00  0.00     0.013 A 
ATOM     18  C   UNL d   1      15.267  -2.878  59.881  0.00  0.00     0.010 A 
BRANCH  16  19
ATOM     19  C   UNL d   1      11.426  -2.784  59.938  0.00  0.00    -0.025 A 
ATOM     20  C   UNL d   1      10.345  -3.704  59.971  0.00  0.00     0.012 A 
ATOM     21  C   UNL d   1       9.027  -3.283  59.778  0.00  0.00     0.002 A 
ATOM     22  C   UNL d   1       8.742  -1.942  59.546  0.00  0.00     0.023 A 
ATOM     23  C   UNL d   1       9.777  -1.008  59.509  0.00  0.00     0.059 A 
ATOM     24  C   UNL d   1      11.102  -1.423  59.700  0.00  0.00     0.035 A 
BRANCH  23  25
ATOM     25  S   UNL d   1       9.413   0.724  59.204  0.00  0.00     0.171 S 
ATOM     26  O   UNL d   1      10.313   1.179  58.045  0.00  0.00    -0.223 OA
ATOM     27  C   UNL d   1       7.761   1.416  58.916  0.00  0.00     0.167 C 
ATOM     28  O   UNL d   1      10.069   1.538  60.330  0.00  0.00    -0.223 OA
ENDBRANCH  23  25
ENDBRANCH  16  19
ENDBRANCH  11  12
ENDBRANCH   1  11
BRANCH   1  29
ATOM     29  C   UNL d   1      18.995  -3.813  59.223  0.00  0.00     0.108 C 
BRANCH  29  30
ATOM     30  C   UNL d   1      19.024  -2.642  60.210  0.00  0.00    -0.026 A 
ATOM     31  C   UNL d   1      19.450  -2.756  61.544  0.00  0.00    -0.013 A 
ATOM     32  C   UNL d   1      19.972  -3.968  62.241  0.00  0.00     0.057 C 
ATOM     33  S   UNL d   1      19.308  -1.265  62.311  0.00  0.00    -0.100 SA
ATOM     34  C   UNL d   1      18.707  -0.446  60.979  0.00  0.00    -0.020 A 
ATOM     35  C   UNL d   1      18.333   0.998  60.950  0.00  0.00     0.056 C 
ATOM     36  C   UNL d   1      18.605  -1.324  59.910  0.00  0.00     0.024 A 
ENDBRANCH  29  30
BRANCH  29  37
ATOM     37  C   UNL d   1      19.290  -3.393  57.750  0.00  0.00     0.021 C 
ATOM     38  C   UNL d   1      18.012  -3.221  56.921  0.00  0.00     0.007 C 
ENDBRANCH  29  37
ENDBRANCH   1  29
TORSDOF 9
ENDMDL
MODEL 8
REMARK VINA RESULT:    -9.596      1.490      2.647
REMARK INTER + INTRA:         -14.724
REMARK INTER:                 -14.645
REMARK INTRA:                  -0.079
REMARK UNBOUND:                -0.079
REMARK  9 active torsions:
REMARK  status: ('A' for Active; 'I' for Inactive)
REMARK    1  A    between atoms: C_3  and  C_2 
REMARK    2  A    between atoms: C_3  and  C_5 
REMARK    3  A    between atoms: C_3  and  N_4 
REMARK    4  A    between atoms: S_6  and  N_4 
REMARK    5  A    between atoms: N_4  and  C_7 
REMARK    6  A    between atoms: S_6  and  C_10 
REMARK    7  A    between atoms: C_7  and  C_18 
REMARK    8  A    between atoms: C_28  and  C_29 
REMARK    9  A    between atoms: C_33  and  S_35 
ROOT
ATOM      1  N   UNL d   1      18.069  -5.351  60.343  0.00  0.00    -0.192 NA
ENDROOT
BRANCH   1   2
ATOM      2  S   UNL d   1      19.299  -6.443  59.632  0.00  0.00     0.263 S 
ATOM      3  O   UNL d   1      19.264  -7.736  60.459  0.00  0.00    -0.204 OA
ATOM      4  O   UNL d   1      20.647  -5.865  60.088  0.00  0.00    -0.204 OA
BRANCH   2   5
ATOM      5  C   UNL d   1      19.315  -6.750  57.870  0.00  0.00     0.183 A 
ATOM      6  C   UNL d   1      20.399  -6.603  57.036  0.00  0.00     0.136 A 
ATOM      7  N   UNL d   1      19.998  -6.940  55.798  0.00  0.00    -0.353 N 
ATOM      8  C   UNL d   1      20.803  -6.941  54.583  0.00  0.00     0.156 C 
ATOM      9  C   UNL d   1      18.699  -7.279  55.901  0.00  0.00     0.210 A 
ATOM     10  N   UNL d   1      18.246  -7.173  57.167  0.00  0.00    -0.229 NA
ENDBRANCH   2   5
ENDBRANCH   1   2
BRANCH   1  11
ATOM     11  C   UNL d   1      16.877  -6.145  60.728  0.00  0.00     0.147 C 
BRANCH  11  12
ATOM     12  C   UNL d   1      15.587  -5.369  60.525  0.00  0.00    -0.038 A 
ATOM     13  C   UNL d   1      15.310  -4.528  59.415  0.00  0.00    -0.054 A 
ATOM     14  C   UNL d   1      16.265  -4.269  58.273  0.00  0.00     0.049 C 
ATOM     15  C   UNL d   1      14.067  -3.869  59.343  0.00  0.00     0.019 A 
ATOM     16  C   UNL d   1      13.076  -4.007  60.345  0.00  0.00    -0.025 A 
ATOM     17  C   UNL d   1      13.391  -4.839  61.441  0.00  0.00     0.013 A 
ATOM     18  C   UNL d   1      14.614  -5.498  61.525  0.00  0.00     0.010 A 
BRANCH  16  19
ATOM     19  C   UNL d   1      11.738  -3.290  60.251  0.00  0.00    -0.025 A 
ATOM     20  C   UNL d   1      10.517  -3.961  60.520  0.00  0.00     0.012 A 
ATOM     21  C   UNL d   1       9.289  -3.300  60.429  0.00  0.00     0.002 A 
ATOM     22  C   UNL d   1       9.236  -1.958  60.070  0.00  0.00     0.023 A 
ATOM     23  C   UNL d   1      10.415  -1.264  59.800  0.00  0.00     0.059 A 
ATOM     24  C   UNL d   1      11.650  -1.921  59.887  0.00  0.00     0.035 A 
BRANCH  23  25
ATOM     25  S   UNL d   1      10.351   0.468  59.330  0.00  0.00     0.171 S 
ATOM     26  O   UNL d   1      11.658   0.785  58.588  0.00  0.00    -0.223 OA
ATOM     27  C   UNL d   1       8.998   1.258  58.415  0.00  0.00     0.167 C 
ATOM     28  O   UNL d   1      10.604   1.300  60.596  0.00  0.00    -0.223 OA
ENDBRANCH  23  25
ENDBRANCH  16  19
ENDBRANCH  11  12
ENDBRANCH   1  11
BRANCH   1  29
ATOM     29  C   UNL d   1      18.603  -4.448  61.409  0.00  0.00     0.108 C 
BRANCH  29  30
ATOM     30  C   UNL d   1      18.670  -3.010  60.884  0.00  0.00    -0.026 A 
ATOM     31  C   UNL d   1      18.235  -1.892  61.615  0.00  0.00    -0.013 A 
ATOM     32  C   UNL d   1      17.676  -1.859  62.999  0.00  0.00     0.057 C 
ATOM     33  S   UNL d   1      18.445  -0.500  60.694  0.00  0.00    -0.100 SA
ATOM     34  C   UNL d   1      19.087  -1.277  59.356  0.00  0.00    -0.020 A 
ATOM     35  C   UNL d   1      19.517  -0.609  58.093  0.00  0.00     0.056 C 
ATOM     36  C   UNL d   1      19.149  -2.640  59.605  0.00  0.00     0.024 A 
ENDBRANCH  29  30
BRANCH  29  37
ATOM     37  C   UNL d   1      19.944  -4.947  62.030  0.00  0.00     0.021 C 
ATOM     38  C   UNL d   1      20.690  -3.841  62.785  0.00  0.00     0.007 C 
ENDBRANCH  29  37
ENDBRANCH   1  29
TORSDOF 9
ENDMDL
MODEL 9
REMARK VINA RESULT:    -9.562      1.768      2.832
REMARK INTER + INTRA:         -14.672
REMARK INTER:                 -13.629
REMARK INTRA:                  -1.043
REMARK UNBOUND:                -0.079
REMARK  9 active torsions:
REMARK  status: ('A' for Active; 'I' for Inactive)
REMARK    1  A    between atoms: C_3  and  C_2 
REMARK    2  A    between atoms: C_3  and  C_5 
REMARK    3  A    between atoms: C_3  and  N_4 
REMARK    4  A    between atoms: S_6  and  N_4 
REMARK    5  A    between atoms: N_4  and  C_7 
REMARK    6  A    between atoms: S_6  and  C_10 
REMARK    7  A    between atoms: C_7  and  C_18 
REMARK    8  A    between atoms: C_28  and  C_29 
REMARK    9  A    between atoms: C_33  and  S_35 
ROOT
ATOM      1  N   UNL d   1      17.590  -5.880  59.435  0.00  0.00    -0.192 NA
ENDROOT
BRANCH   1   2
ATOM      2  S   UNL d   1      18.626  -7.270  58.984  0.00  0.00     0.263 S 
ATOM      3  O   UNL d   1      17.678  -8.424  58.628  0.00  0.00    -0.204 OA
ATOM      4  O   UNL d   1      19.193  -7.787  60.316  0.00  0.00    -0.204 OA
BRANCH   2   5
ATOM      5  C   UNL d   1      19.938  -7.060  57.787  0.00  0.00     0.183 A 
ATOM      6  C   UNL d   1      19.813  -7.191  56.423  0.00  0.00     0.136 A 
ATOM      7  N   UNL d   1      21.021  -6.946  55.886  0.00  0.00    -0.353 N 
ATOM      8  C   UNL d   1      21.376  -6.967  54.473  0.00  0.00     0.156 C 
ATOM      9  C   UNL d   1      21.845  -6.676  56.917  0.00  0.00     0.210 A 
ATOM     10  N   UNL d   1      21.207  -6.738  58.105  0.00  0.00    -0.229 NA
ENDBRANCH   2   5
ENDBRANCH   1   2
BRANCH   1  11
ATOM     11  C   UNL d   1      16.198  -6.354  59.631  0.00  0.00     0.147 C 
BRANCH  11  12
ATOM     12  C   UNL d   1      15.211  -5.202  59.706  0.00  0.00    -0.038 A 
ATOM     13  C   UNL d   1      14.342  -4.945  60.799  0.00  0.00    -0.054 A 
ATOM     14  C   UNL d   1      14.261  -5.789  62.050  0.00  0.00     0.049 C 
ATOM     15  C   UNL d   1      13.478  -3.834  60.746  0.00  0.00     0.019 A 
ATOM     16  C   UNL d   1      13.434  -2.959  59.635  0.00  0.00    -0.025 A 
ATOM     17  C   UNL d   1      14.300  -3.253  58.560  0.00  0.00     0.013 A 
ATOM     18  C   UNL d   1      15.161  -4.346  58.599  0.00  0.00     0.010 A 
BRANCH  16  19
ATOM     19  C   UNL d   1      12.496  -1.763  59.594  0.00  0.00    -0.025 A 
ATOM     20  C   UNL d   1      12.961  -0.467  59.249  0.00  0.00     0.012 A 
ATOM     21  C   UNL d   1      12.098   0.631  59.216  0.00  0.00     0.002 A 
ATOM     22  C   UNL d   1      10.750   0.477  59.523  0.00  0.00     0.023 A 
ATOM     23  C   UNL d   1      10.255  -0.781  59.865  0.00  0.00     0.059 A 
ATOM     24  C   UNL d   1      11.116  -1.886  59.902  0.00  0.00     0.035 A 
BRANCH  23  25
ATOM     25  S   UNL d   1       8.517  -0.983  60.269  0.00  0.00     0.171 S 
ATOM     26  O   UNL d   1       8.422  -1.152  61.792  0.00  0.00    -0.223 OA
ATOM     27  C   UNL d   1       7.183   0.136  59.759  0.00  0.00     0.167 C 
ATOM     28  O   UNL d   1       8.110  -2.408  59.860  0.00  0.00    -0.223 OA
ENDBRANCH  23  25
ENDBRANCH  16  19
ENDBRANCH  11  12
ENDBRANCH   1  11
BRANCH   1  29
ATOM     29  C   UNL d   1      18.141  -5.050  60.551  0.00  0.00     0.108 C 
BRANCH  29  30
ATOM     30  C   UNL d   1      18.020  -3.564  60.198  0.00  0.00    -0.026 A 
ATOM     31  C   UNL d   1      17.566  -2.583  61.096  0.00  0.00    -0.013 A 
ATOM     32  C   UNL d   1      17.159  -2.760  62.522  0.00  0.00     0.057 C 
ATOM     33  S   UNL d   1      17.549  -1.084  60.333  0.00  0.00    -0.100 SA
ATOM     34  C   UNL d   1      18.112  -1.640  58.856  0.00  0.00    -0.020 A 
ATOM     35  C   UNL d   1      18.341  -0.797  57.647  0.00  0.00     0.056 C 
ATOM     36  C   UNL d   1      18.323  -3.008  58.933  0.00  0.00     0.024 A 
ENDBRANCH  29  30
BRANCH  29  37
ATOM     37  C   UNL d   1      19.578  -5.472  60.987  0.00  0.00     0.021 C 
ATOM     38  C   UNL d   1      20.230  -4.452  61.928  0.00  0.00     0.007 C 
ENDBRANCH  29  37
ENDBRANCH   1  29
TORSDOF 9
ENDMDL
