REMARK  9 active torsions:
REMARK  status: ('A' for Active; 'I' for Inactive)
REMARK    1  A    between atoms: C_3  and  C_2 
REMARK    2  A    between atoms: C_3  and  C_5 
REMARK    3  A    between atoms: C_3  and  N_4 
REMARK    4  A    between atoms: S_6  and  N_4 
REMARK    5  A    between atoms: N_4  and  C_7 
REMARK    6  A    between atoms: S_6  and  C_10 
REMARK    7  A    between atoms: C_7  and  C_18 
REMARK    8  A    between atoms: C_28  and  C_29 
REMARK    9  A    between atoms: C_33  and  S_35 
ROOT
ATOM      1  N   UNL d   1       2.884   0.095   0.301  0.00  0.00    -0.192 NA
ENDROOT
BRANCH   1   2
ATOM      2  S   UNL d   1       2.983   1.319  -1.004  0.00  0.00     0.263 S 
ATOM      3  O   UNL d   1       4.384   1.189  -1.619  0.00  0.00    -0.204 OA
ATOM      4  O   UNL d   1       3.132   2.662  -0.272  0.00  0.00    -0.204 OA
BRANCH   2   5
ATOM      5  C   UNL d   1       1.694   1.420  -2.239  0.00  0.00     0.183 A 
ATOM      6  C   UNL d   1       1.843   1.167  -3.583  0.00  0.00     0.136 A 
ATOM      7  N   UNL d   1       0.642   1.346  -4.159  0.00  0.00    -0.353 N 
ATOM      8  C   UNL d   1       0.311   1.190  -5.569  0.00  0.00     0.156 C 
ATOM      9  C   UNL d   1      -0.202   1.699  -3.170  0.00  0.00     0.210 A 
ATOM     10  N   UNL d   1       0.416   1.754  -1.972  0.00  0.00    -0.229 NA
ENDBRANCH   2   5
ENDBRANCH   1   2
BRANCH   1  11
ATOM     11  C   UNL d   1       1.707   0.388   1.155  0.00  0.00     0.147 C 
BRANCH  11  12
ATOM     12  C   UNL d   1       1.738  -0.399   2.454  0.00  0.00    -0.038 A 
ATOM     13  C   UNL d   1       0.751  -1.336   2.861  0.00  0.00    -0.054 A 
ATOM     14  C   UNL d   1      -0.486  -1.682   2.065  0.00  0.00     0.049 C 
ATOM     15  C   UNL d   1       0.904  -2.007   4.090  0.00  0.00     0.019 A 
ATOM     16  C   UNL d   1       2.006  -1.778   4.948  0.00  0.00    -0.025 A 
ATOM     17  C   UNL d   1       2.959  -0.829   4.519  0.00  0.00     0.013 A 
ATOM     18  C   UNL d   1       2.823  -0.160   3.306  0.00  0.00     0.010 A 
BRANCH  16  19
ATOM     19  C   UNL d   1       2.157  -2.512   6.271  0.00  0.00    -0.025 A 
ATOM     20  C   UNL d   1       3.249  -2.257   7.141  0.00  0.00     0.012 A 
ATOM     21  C   UNL d   1       3.386  -2.936   8.354  0.00  0.00     0.002 A 
ATOM     22  C   UNL d   1       2.447  -3.886   8.740  0.00  0.00     0.023 A 
ATOM     23  C   UNL d   1       1.359  -4.163   7.913  0.00  0.00     0.059 A 
ATOM     24  C   UNL d   1       1.216  -3.487   6.694  0.00  0.00     0.035 A 
BRANCH  23  25
ATOM     25  S   UNL d   1       0.147  -5.394   8.405  0.00  0.00     0.171 S 
ATOM     26  O   UNL d   1      -1.239  -4.826   8.066  0.00  0.00    -0.223 OA
ATOM     27  C   UNL d   1       0.159  -7.138   7.906  0.00  0.00     0.167 C 
ATOM     28  O   UNL d   1       0.039  -5.349   9.937  0.00  0.00    -0.223 OA
ENDBRANCH  23  25
ENDBRANCH  16  19
ENDBRANCH  11  12
ENDBRANCH   1  11
BRANCH   1  29
ATOM     29  C   UNL d   1       2.982  -1.317  -0.183  0.00  0.00     0.108 C 
BRANCH  29  30
ATOM     30  C   UNL d   1       4.356  -1.552  -0.819  0.00  0.00    -0.026 A 
ATOM     31  C   UNL d   1       5.566  -1.489  -0.108  0.00  0.00    -0.013 A 
ATOM     32  C   UNL d   1       5.763  -1.229   1.349  0.00  0.00     0.057 C 
ATOM     33  S   UNL d   1       6.851  -1.775  -1.155  0.00  0.00    -0.100 SA
ATOM     34  C   UNL d   1       5.910  -1.983  -2.525  0.00  0.00    -0.020 A 
ATOM     35  C   UNL d   1       6.429  -2.276  -3.893  0.00  0.00     0.056 C 
ATOM     36  C   UNL d   1       4.573  -1.832  -2.189  0.00  0.00     0.024 A 
ENDBRANCH  29  30
BRANCH  29  37
ATOM     37  C   UNL d   1       1.792  -1.743  -1.097  0.00  0.00     0.021 C 
ATOM     38  C   UNL d   1       1.751  -3.256  -1.342  0.00  0.00     0.007 C 
ENDBRANCH  29  37
ENDBRANCH   1  29
TORSDOF 9
