/content/1PQ6_Docking/DOCKING/CLC-0000183/CLC-0000183_output.pdbqt
 OpenBabel03072503353D

 38 41  0  0  1  0  0  0  0  0999 V2000
   17.5600   -4.0460   59.5340 N   0  0  0  0  0  0  0  0  0  0  0  0
   17.8520   -5.7680   59.1360 S   0  0  0  0  0  0  0  0  0  0  0  0
   16.5150   -6.3340   58.6360 O   0  0  0  0  0  0  0  0  0  0  0  0
   17.9520   -6.4740   60.4980 O   0  0  0  0  0  0  0  0  0  0  0  0
   19.2290   -6.2270   58.0920 C   0  0  0  0  0  0  0  0  0  0  0  0
   19.2430   -6.1990   56.7170 C   0  0  0  0  0  3  0  0  0  0  0  0
   20.4600   -6.6090   56.3210 N   0  0  0  0  0  0  0  0  0  0  0  0
   20.9420   -6.7410   54.9530 C   0  0  0  0  0  1  0  0  0  0  0  0
   21.1530   -6.8740   57.4460 C   0  0  0  0  0  3  0  0  0  0  0  0
   20.4220   -6.6490   58.5570 N   0  0  0  0  0  0  0  0  0  0  0  0
   16.8010   -3.9610   60.8060 C   0  0  0  0  0  2  0  0  0  0  0  0
   15.3200   -3.7200   60.5690 C   0  0  0  0  0  0  0  0  0  0  0  0
   14.2830   -4.6260   60.9160 C   0  0  0  0  0  0  0  0  0  0  0  0
   14.4990   -5.9730   61.5640 C   0  0  0  0  0  1  0  0  0  0  0  0
   12.9450   -4.2750   60.6490 C   0  0  0  0  0  3  0  0  0  0  0  0
   12.5890   -3.0500   60.0360 C   0  0  0  0  0  0  0  0  0  0  0  0
   13.6470   -2.1820   59.6900 C   0  0  0  0  0  3  0  0  0  0  0  0
   14.9730   -2.5130   59.9500 C   0  0  0  0  0  3  0  0  0  0  0  0
   11.1390   -2.6870   59.7550 C   0  0  0  0  0  0  0  0  0  0  0  0
   10.1280   -3.6790   59.6690 C   0  0  0  0  0  3  0  0  0  0  0  0
    8.7980   -3.3410   59.4080 C   0  0  0  0  0  3  0  0  0  0  0  0
    8.4320   -2.0120   59.2250 C   0  0  0  0  0  3  0  0  0  0  0  0
    9.3960   -1.0080   59.3040 C   0  0  0  0  0  0  0  0  0  0  0  0
   10.7330   -1.3400   59.5640 C   0  0  0  0  0  3  0  0  0  0  0  0
    8.9280    0.7090   59.0610 S   0  0  0  0  0  0  0  0  0  0  0  0
    9.7270    1.5430   60.0730 O   0  0  0  0  0  0  0  0  0  0  0  0
    8.9610    1.5930   57.4780 C   0  0  0  0  0  1  0  0  0  0  0  0
    7.5300    0.8960   59.6700 O   0  0  0  0  0  0  0  0  0  0  0  0
   18.7860   -3.1910   59.4680 C   0  0  2  0  0  3  0  0  0  0  0  0
   19.2800   -2.8840   60.8850 C   0  0  0  0  0  0  0  0  0  0  0  0
   18.8590   -1.7730   61.6340 C   0  0  0  0  0  0  0  0  0  0  0  0
   17.8660   -0.7270   61.2480 C   0  0  0  0  0  1  0  0  0  0  0  0
   19.6430   -1.7660   63.1220 S   0  0  0  0  0  0  0  0  0  0  0  0
   20.5300   -3.1620   62.8530 C   0  0  0  0  0  0  0  0  0  0  0  0
   21.4970   -3.7690   63.8130 C   0  0  0  0  0  1  0  0  0  0  0  0
   20.2290   -3.6590   61.5940 C   0  0  0  0  0  3  0  0  0  0  0  0
   18.6090   -1.9200   58.5810 C   0  0  0  0  0  2  0  0  0  0  0  0
   19.9420   -1.2280   58.2720 C   0  0  0  0  0  1  0  0  0  0  0  0
  1 11  1  0  0  0  0
  2  1  1  0  0  0  0
  2  4  2  0  0  0  0
  3  2  2  0  0  0  0
  5 10  1  0  0  0  0
  5  2  1  0  0  0  0
  6  5  2  0  0  0  0
  7  6  1  0  0  0  0
  7  9  1  0  0  0  0
  8  7  1  0  0  0  0
  9 10  2  0  0  0  0
 12 11  1  0  0  0  0
 12 13  1  0  0  0  0
 13 14  1  0  0  0  0
 15 13  2  0  0  0  0
 16 15  1  0  0  0  0
 17 18  1  0  0  0  0
 17 16  2  0  0  0  0
 18 12  2  0  0  0  0
 19 16  1  0  0  0  0
 20 19  1  0  0  0  0
 21 20  2  0  0  0  0
 22 23  2  0  0  0  0
 22 21  1  0  0  0  0
 23 24  1  0  0  0  0
 24 19  2  0  0  0  0
 25 23  1  0  0  0  0
 25 28  2  0  0  0  0
 25 26  2  0  0  0  0
 27 25  1  0  0  0  0
 29 37  1  1  0  0  0
 29  1  1  0  0  0  0
 29 30  1  0  0  0  0
 30 36  1  0  0  0  0
 30 31  2  0  0  0  0
 31 33  1  0  0  0  0
 32 31  1  0  0  0  0
 34 33  1  0  0  0  0
 34 35  1  0  0  0  0
 36 34  2  0  0  0  0
 38 37  1  0  0  0  0
M  END
>  <POSE>
1

>  <SCORE>
-11.784

>  <RMSD_LB_BP>
0.000

>  <RMSD_UB_BP>
0.000

$$$$
/content/1PQ6_Docking/DOCKING/CLC-0000183/CLC-0000183_output.pdbqt
 OpenBabel03072503353D

 38 41  0  0  1  0  0  0  0  0999 V2000
   18.5730   -4.5150   59.8180 N   0  0  0  0  0  0  0  0  0  0  0  0
   18.8150   -6.2250   59.3410 S   0  0  0  0  0  0  0  0  0  0  0  0
   17.4160   -6.8130   59.1020 O   0  0  0  0  0  0  0  0  0  0  0  0
   19.1930   -6.9470   60.6440 O   0  0  0  0  0  0  0  0  0  0  0  0
   19.9690   -6.6390   58.0400 C   0  0  0  0  0  0  0  0  0  0  0  0
   19.7320   -6.5370   56.6880 C   0  0  0  0  0  3  0  0  0  0  0  0
   20.8480   -6.9350   56.0550 N   0  0  0  0  0  0  0  0  0  0  0  0
   21.0690   -6.9970   54.6170 C   0  0  0  0  0  1  0  0  0  0  0  0
   21.7300   -7.2660   57.0180 C   0  0  0  0  0  3  0  0  0  0  0  0
   21.2190   -7.0950   58.2550 N   0  0  0  0  0  0  0  0  0  0  0  0
   17.9220   -3.7850   58.7030 C   0  0  0  0  0  2  0  0  0  0  0  0
   16.4830   -3.4230   59.0250 C   0  0  0  0  0  0  0  0  0  0  0  0
   16.0350   -2.1290   59.4050 C   0  0  0  0  0  0  0  0  0  0  0  0
   16.9290   -0.9200   59.5560 C   0  0  0  0  0  1  0  0  0  0  0  0
   14.6670   -1.9240   59.6690 C   0  0  0  0  0  3  0  0  0  0  0  0
   13.7120   -2.9640   59.5800 C   0  0  0  0  0  0  0  0  0  0  0  0
   14.1940   -4.2400   59.2150 C   0  0  0  0  0  3  0  0  0  0  0  0
   15.5430   -4.4580   58.9480 C   0  0  0  0  0  3  0  0  0  0  0  0
   12.2380   -2.7250   59.8670 C   0  0  0  0  0  0  0  0  0  0  0  0
   11.4120   -3.7460   60.4050 C   0  0  0  0  0  3  0  0  0  0  0  0
   10.0570   -3.5240   60.6640 C   0  0  0  0  0  3  0  0  0  0  0  0
    9.4830   -2.2860   60.3980 C   0  0  0  0  0  3  0  0  0  0  0  0
   10.2620   -1.2570   59.8710 C   0  0  0  0  0  0  0  0  0  0  0  0
   11.6210   -1.4740   59.6070 C   0  0  0  0  0  3  0  0  0  0  0  0
    9.5230    0.3410   59.5200 S   0  0  0  0  0  0  0  0  0  0  0  0
   10.2500    0.9190   58.2970 O   0  0  0  0  0  0  0  0  0  0  0  0
    7.7490    0.6520   59.2980 C   0  0  0  0  0  1  0  0  0  0  0  0
   10.0400    1.3310   60.5760 O   0  0  0  0  0  0  0  0  0  0  0  0
   17.9230   -4.3440   61.1540 C   0  0  2  0  0  3  0  0  0  0  0  0
   18.9050   -3.6860   62.1280 C   0  0  0  0  0  0  0  0  0  0  0  0
   18.5700   -2.6080   62.9650 C   0  0  0  0  0  0  0  0  0  0  0  0
   17.2470   -1.9310   63.1060 C   0  0  0  0  0  1  0  0  0  0  0  0
   19.9180   -2.1490   63.8610 S   0  0  0  0  0  0  0  0  0  0  0  0
   20.9510   -3.2980   63.2130 C   0  0  0  0  0  0  0  0  0  0  0  0
   22.3890   -3.4670   63.5720 C   0  0  0  0  0  1  0  0  0  0  0  0
   20.2610   -4.0610   62.2830 C   0  0  0  0  0  3  0  0  0  0  0  0
   17.2860   -5.6570   61.7060 C   0  0  0  0  0  2  0  0  0  0  0  0
   15.8760   -5.4360   62.2670 C   0  0  0  0  0  1  0  0  0  0  0  0
  1 29  1  0  0  0  0
  2  1  1  0  0  0  0
  2  4  2  0  0  0  0
  3  2  2  0  0  0  0
  5 10  1  0  0  0  0
  5  2  1  0  0  0  0
  6  5  2  0  0  0  0
  7  6  1  0  0  0  0
  7  9  1  0  0  0  0
  8  7  1  0  0  0  0
  9 10  2  0  0  0  0
 11 12  1  0  0  0  0
 11  1  1  0  0  0  0
 12 13  1  0  0  0  0
 13 14  1  0  0  0  0
 13 15  2  0  0  0  0
 16 15  1  0  0  0  0
 16 19  1  0  0  0  0
 17 16  2  0  0  0  0
 18 12  2  0  0  0  0
 18 17  1  0  0  0  0
 19 20  1  0  0  0  0
 20 21  2  0  0  0  0
 22 21  1  0  0  0  0
 23 22  2  0  0  0  0
 24 19  2  0  0  0  0
 24 23  1  0  0  0  0
 25 23  1  0  0  0  0
 25 28  2  0  0  0  0
 26 25  2  0  0  0  0
 27 25  1  0  0  0  0
 29 37  1  1  0  0  0
 29 30  1  0  0  0  0
 30 36  1  0  0  0  0
 30 31  2  0  0  0  0
 31 32  1  0  0  0  0
 31 33  1  0  0  0  0
 34 35  1  0  0  0  0
 34 33  1  0  0  0  0
 36 34  2  0  0  0  0
 37 38  1  0  0  0  0
M  END
>  <POSE>
2

>  <SCORE>
-11.724

>  <RMSD_LB_BP>
1.395

>  <RMSD_UB_BP>
2.341

$$$$
/content/1PQ6_Docking/DOCKING/CLC-0000183/CLC-0000183_output.pdbqt
 OpenBabel03072503353D

 38 41  0  0  1  0  0  0  0  0999 V2000
   17.7310   -3.5910   60.3900 N   0  0  0  0  0  0  0  0  0  0  0  0
   18.2340   -2.0690   61.1900 S   0  0  0  0  0  0  0  0  0  0  0  0
   17.0090   -1.1430   61.1750 O   0  0  0  0  0  0  0  0  0  0  0  0
   19.1240   -1.3590   60.1590 O   0  0  0  0  0  0  0  0  0  0  0  0
   19.0410   -2.1190   62.7850 C   0  0  0  0  0  0  0  0  0  0  0  0
   20.2720   -2.6730   63.0480 C   0  0  0  0  0  3  0  0  0  0  0  0
   20.5180   -2.4970   64.3580 N   0  0  0  0  0  0  0  0  0  0  0  0
   21.7020   -2.9180   65.0950 C   0  0  0  0  0  1  0  0  0  0  0  0
   19.4490   -1.8480   64.8580 C   0  0  0  0  0  3  0  0  0  0  0  0
   18.5190   -1.6000   63.9130 N   0  0  0  0  0  0  0  0  0  0  0  0
   17.0170   -3.2660   59.1310 C   0  0  0  0  0  2  0  0  0  0  0  0
   15.5180   -3.1380   59.3440 C   0  0  0  0  0  0  0  0  0  0  0  0
   14.6560   -4.2020   59.7200 C   0  0  0  0  0  0  0  0  0  0  0  0
   15.1010   -5.6270   59.9530 C   0  0  0  0  0  1  0  0  0  0  0  0
   13.2820   -3.9460   59.8940 C   0  0  0  0  0  3  0  0  0  0  0  0
   12.7180   -2.6630   59.7000 C   0  0  0  0  0  0  0  0  0  0  0  0
   13.6020   -1.6330   59.3120 C   0  0  0  0  0  3  0  0  0  0  0  0
   14.9630   -1.8690   59.1390 C   0  0  0  0  0  3  0  0  0  0  0  0
   11.2330   -2.4030   59.8940 C   0  0  0  0  0  0  0  0  0  0  0  0
   10.3770   -3.3790   60.4680 C   0  0  0  0  0  3  0  0  0  0  0  0
    9.0120   -3.1380   60.6410 C   0  0  0  0  0  3  0  0  0  0  0  0
    8.4560   -1.9250   60.2520 C   0  0  0  0  0  3  0  0  0  0  0  0
    9.2650   -0.9400   59.6860 C   0  0  0  0  0  0  0  0  0  0  0  0
   10.6340   -1.1750   59.5080 C   0  0  0  0  0  3  0  0  0  0  0  0
    8.5490    0.6270   59.1760 S   0  0  0  0  0  0  0  0  0  0  0  0
    9.1420    1.7130   60.0850 O   0  0  0  0  0  0  0  0  0  0  0  0
    8.5410    1.2760   57.4820 C   0  0  0  0  0  1  0  0  0  0  0  0
    7.1030    0.6650   59.6950 O   0  0  0  0  0  0  0  0  0  0  0  0
   18.8290   -4.5980   60.2560 C   0  0  2  0  0  3  0  0  0  0  0  0
   18.7810   -5.2350   58.8630 C   0  0  0  0  0  0  0  0  0  0  0  0
   19.2220   -4.5900   57.6950 C   0  0  0  0  0  0  0  0  0  0  0  0
   19.8330   -3.2340   57.5680 C   0  0  0  0  0  1  0  0  0  0  0  0
   18.9800   -5.5980   56.3700 S   0  0  0  0  0  0  0  0  0  0  0  0
   18.3140   -6.8650   57.2400 C   0  0  0  0  0  0  0  0  0  0  0  0
   17.8380   -8.1550   56.6600 C   0  0  0  0  0  1  0  0  0  0  0  0
   18.2680   -6.5230   58.5830 C   0  0  0  0  0  3  0  0  0  0  0  0
   18.8600   -5.6400   61.4160 C   0  0  0  0  0  2  0  0  0  0  0  0
   17.5150   -5.7490   62.1440 C   0  0  0  0  0  1  0  0  0  0  0  0
  1  2  1  0  0  0  0
  2  5  1  0  0  0  0
  3  2  2  0  0  0  0
  4  2  2  0  0  0  0
  5  6  2  0  0  0  0
  5 10  1  0  0  0  0
  6  7  1  0  0  0  0
  7  9  1  0  0  0  0
  7  8  1  0  0  0  0
 10  9  2  0  0  0  0
 11 12  1  0  0  0  0
 11  1  1  0  0  0  0
 12 13  1  0  0  0  0
 13 15  2  0  0  0  0
 13 14  1  0  0  0  0
 16 19  1  0  0  0  0
 16 15  1  0  0  0  0
 17 16  2  0  0  0  0
 18 17  1  0  0  0  0
 18 12  2  0  0  0  0
 19 20  1  0  0  0  0
 20 21  2  0  0  0  0
 22 21  1  0  0  0  0
 23 22  2  0  0  0  0
 24 23  1  0  0  0  0
 24 19  2  0  0  0  0
 25 23  1  0  0  0  0
 25 28  2  0  0  0  0
 25 26  2  0  0  0  0
 27 25  1  0  0  0  0
 29  1  1  0  0  0  0
 29 37  1  1  0  0  0
 30 29  1  0  0  0  0
 31 30  2  0  0  0  0
 32 31  1  0  0  0  0
 33 34  1  0  0  0  0
 33 31  1  0  0  0  0
 34 36  2  0  0  0  0
 35 34  1  0  0  0  0
 36 30  1  0  0  0  0
 37 38  1  0  0  0  0
M  END
>  <POSE>
3

>  <SCORE>
-11.313

>  <RMSD_LB_BP>
2.283

>  <RMSD_UB_BP>
4.783

$$$$
/content/1PQ6_Docking/DOCKING/CLC-0000183/CLC-0000183_output.pdbqt
 OpenBabel03072503353D

 38 41  0  0  1  0  0  0  0  0999 V2000
   17.6240   -4.4230   59.7610 N   0  0  0  0  0  0  0  0  0  0  0  0
   18.6610   -3.8400   58.4210 S   0  0  0  0  0  0  0  0  0  0  0  0
   19.7230   -2.9310   59.0560 O   0  0  0  0  0  0  0  0  0  0  0  0
   17.8070   -2.7920   57.6910 O   0  0  0  0  0  0  0  0  0  0  0  0
   19.3570   -5.0030   57.2540 C   0  0  0  0  0  0  0  0  0  0  0  0
   20.6970   -5.2220   57.0360 C   0  0  0  0  0  3  0  0  0  0  0  0
   20.7980   -6.1730   56.0910 N   0  0  0  0  0  0  0  0  0  0  0  0
   22.0220   -6.7340   55.5360 C   0  0  0  0  0  1  0  0  0  0  0  0
   19.5370   -6.5090   55.7580 C   0  0  0  0  0  3  0  0  0  0  0  0
   18.6230   -5.8050   56.4580 N   0  0  0  0  0  0  0  0  0  0  0  0
   16.5420   -5.2730   59.2050 C   0  0  0  0  0  2  0  0  0  0  0  0
   15.1640   -4.7130   59.5150 C   0  0  0  0  0  0  0  0  0  0  0  0
   14.4020   -5.0250   60.6720 C   0  0  0  0  0  0  0  0  0  0  0  0
   14.8440   -5.9710   61.7650 C   0  0  0  0  0  1  0  0  0  0  0  0
   13.1370   -4.4280   60.8440 C   0  0  0  0  0  3  0  0  0  0  0  0
   12.5860   -3.5300   59.8990 C   0  0  0  0  0  0  0  0  0  0  0  0
   13.3650   -3.2560   58.7540 C   0  0  0  0  0  3  0  0  0  0  0  0
   14.6170   -3.8350   58.5720 C   0  0  0  0  0  3  0  0  0  0  0  0
   11.2200   -2.8940   60.1010 C   0  0  0  0  0  0  0  0  0  0  0  0
   10.1460   -3.6130   60.6870 C   0  0  0  0  0  3  0  0  0  0  0  0
    8.8910   -3.0260   60.8680 C   0  0  0  0  0  3  0  0  0  0  0  0
    8.6640   -1.7120   60.4730 C   0  0  0  0  0  3  0  0  0  0  0  0
    9.6960   -0.9720   59.8950 C   0  0  0  0  0  0  0  0  0  0  0  0
   10.9560   -1.5550   59.7100 C   0  0  0  0  0  3  0  0  0  0  0  0
    9.4050    0.7230   59.3790 S   0  0  0  0  0  0  0  0  0  0  0  0
   10.3580    1.0100   58.2090 O   0  0  0  0  0  0  0  0  0  0  0  0
    7.7900    1.4290   58.9530 C   0  0  0  0  0  1  0  0  0  0  0  0
   10.0530    1.6420   60.4260 O   0  0  0  0  0  0  0  0  0  0  0  0
   18.3840   -5.0270   60.8990 C   0  0  2  0  0  3  0  0  0  0  0  0
   18.8460   -3.9240   61.8560 C   0  0  0  0  0  0  0  0  0  0  0  0
   18.1090   -2.7570   62.1160 C   0  0  0  0  0  0  0  0  0  0  0  0
   16.7710   -2.3750   61.5720 C   0  0  0  0  0  1  0  0  0  0  0  0
   18.9560   -1.7820   63.1930 S   0  0  0  0  0  0  0  0  0  0  0  0
   20.2700   -2.8090   63.3540 C   0  0  0  0  0  0  0  0  0  0  0  0
   21.4690   -2.5510   64.2020 C   0  0  0  0  0  1  0  0  0  0  0  0
   20.0700   -3.9340   62.5670 C   0  0  0  0  0  3  0  0  0  0  0  0
   19.5350   -5.9760   60.4410 C   0  0  0  0  0  2  0  0  0  0  0  0
   19.0480   -7.4060   60.1770 C   0  0  0  0  0  1  0  0  0  0  0  0
  1 29  1  0  0  0  0
  2  3  2  0  0  0  0
  2  1  1  0  0  0  0
  4  2  2  0  0  0  0
  5  2  1  0  0  0  0
  6  5  2  0  0  0  0
  7  6  1  0  0  0  0
  8  7  1  0  0  0  0
  9  7  1  0  0  0  0
  9 10  2  0  0  0  0
 10  5  1  0  0  0  0
 11 12  1  0  0  0  0
 11  1  1  0  0  0  0
 12 13  1  0  0  0  0
 13 15  2  0  0  0  0
 13 14  1  0  0  0  0
 16 19  1  0  0  0  0
 16 15  1  0  0  0  0
 17 16  2  0  0  0  0
 18 17  1  0  0  0  0
 18 12  2  0  0  0  0
 19 20  1  0  0  0  0
 20 21  2  0  0  0  0
 22 21  1  0  0  0  0
 23 22  2  0  0  0  0
 24 23  1  0  0  0  0
 24 19  2  0  0  0  0
 25 23  1  0  0  0  0
 25 28  2  0  0  0  0
 26 25  2  0  0  0  0
 27 25  1  0  0  0  0
 29 37  1  6  0  0  0
 29 30  1  0  0  0  0
 30 31  2  0  0  0  0
 30 36  1  0  0  0  0
 31 33  1  0  0  0  0
 32 31  1  0  0  0  0
 33 34  1  0  0  0  0
 34 35  1  0  0  0  0
 36 34  2  0  0  0  0
 38 37  1  0  0  0  0
M  END
>  <POSE>
4

>  <SCORE>
-11.060

>  <RMSD_LB_BP>
1.825

>  <RMSD_UB_BP>
2.205

$$$$
/content/1PQ6_Docking/DOCKING/CLC-0000183/CLC-0000183_output.pdbqt
 OpenBabel03072503353D

 38 41  0  0  1  0  0  0  0  0999 V2000
   17.9540   -4.9540   59.0320 N   0  0  0  0  0  0  0  0  0  0  0  0
   18.2620   -6.6620   58.5840 S   0  0  0  0  0  0  0  0  0  0  0  0
   16.9400   -7.2130   58.0290 O   0  0  0  0  0  0  0  0  0  0  0  0
   18.3280   -7.4130   59.9230 O   0  0  0  0  0  0  0  0  0  0  0  0
   19.6670   -7.0820   57.5610 C   0  0  0  0  0  0  0  0  0  0  0  0
   19.7660   -6.8830   56.2040 C   0  0  0  0  0  3  0  0  0  0  0  0
   20.9760   -7.3240   55.8220 N   0  0  0  0  0  0  0  0  0  0  0  0
   21.5300   -7.3170   54.4740 C   0  0  0  0  0  1  0  0  0  0  0  0
   21.5820   -7.7760   56.9370 C   0  0  0  0  0  3  0  0  0  0  0  0
   20.8010   -7.6410   58.0280 N   0  0  0  0  0  0  0  0  0  0  0  0
   17.1740   -4.9150   60.2930 C   0  0  0  0  0  2  0  0  0  0  0  0
   15.9090   -4.0870   60.1520 C   0  0  0  0  0  0  0  0  0  0  0  0
   14.6170   -4.4950   60.5800 C   0  0  0  0  0  0  0  0  0  0  0  0
   14.3080   -5.8230   61.2310 C   0  0  0  0  0  1  0  0  0  0  0  0
   13.5240   -3.6250   60.3980 C   0  0  0  0  0  3  0  0  0  0  0  0
   13.6590   -2.3530   59.7930 C   0  0  0  0  0  0  0  0  0  0  0  0
   14.9540   -1.9860   59.3660 C   0  0  0  0  0  3  0  0  0  0  0  0
   16.0440   -2.8340   59.5420 C   0  0  0  0  0  3  0  0  0  0  0  0
   12.4700   -1.4250   59.6060 C   0  0  0  0  0  0  0  0  0  0  0  0
   12.6270   -0.1100   59.0940 C   0  0  0  0  0  3  0  0  0  0  0  0
   11.5310    0.7400   58.9270 C   0  0  0  0  0  3  0  0  0  0  0  0
   10.2510    0.3140   59.2600 C   0  0  0  0  0  3  0  0  0  0  0  0
   10.0550   -0.9710   59.7640 C   0  0  0  0  0  0  0  0  0  0  0  0
   11.1500   -1.8290   59.9360 C   0  0  0  0  0  3  0  0  0  0  0  0
    8.4030   -1.5230   60.2020 S   0  0  0  0  0  0  0  0  0  0  0  0
    8.5600   -2.6380   61.2470 O   0  0  0  0  0  0  0  0  0  0  0  0
    7.0470   -0.4500   60.7490 C   0  0  0  0  0  1  0  0  0  0  0  0
    7.8790   -2.3790   59.0390 O   0  0  0  0  0  0  0  0  0  0  0  0
   19.1770   -4.0930   59.0140 C   0  0  2  0  0  3  0  0  0  0  0  0
   19.0900   -3.0480   60.1310 C   0  0  0  0  0  0  0  0  0  0  0  0
   18.8550   -1.6820   59.9060 C   0  0  0  0  0  0  0  0  0  0  0  0
   18.6150   -0.9940   58.6030 C   0  0  0  0  0  1  0  0  0  0  0  0
   18.8590   -0.8590   61.3730 S   0  0  0  0  0  0  0  0  0  0  0  0
   19.1590   -2.2060   62.3220 C   0  0  0  0  0  0  0  0  0  0  0  0
   19.3010   -2.2020   63.8070 C   0  0  0  0  0  1  0  0  0  0  0  0
   19.2610   -3.3250   61.5080 C   0  0  0  0  0  3  0  0  0  0  0  0
   19.4830   -3.4810   57.6120 C   0  0  0  0  0  2  0  0  0  0  0  0
   18.3560   -3.7280   56.6030 C   0  0  0  0  0  1  0  0  0  0  0  0
  1 11  1  0  0  0  0
  2  1  1  0  0  0  0
  2  4  2  0  0  0  0
  3  2  2  0  0  0  0
  5 10  1  0  0  0  0
  5  2  1  0  0  0  0
  6  5  2  0  0  0  0
  7  6  1  0  0  0  0
  7  9  1  0  0  0  0
  8  7  1  0  0  0  0
  9 10  2  0  0  0  0
 12 11  1  0  0  0  0
 12 13  1  0  0  0  0
 13 14  1  0  0  0  0
 15 13  2  0  0  0  0
 16 15  1  0  0  0  0
 17 18  1  0  0  0  0
 17 16  2  0  0  0  0
 18 12  2  0  0  0  0
 19 16  1  0  0  0  0
 19 24  1  0  0  0  0
 20 19  2  0  0  0  0
 21 20  1  0  0  0  0
 21 22  2  0  0  0  0
 22 23  1  0  0  0  0
 23 24  2  0  0  0  0
 23 25  1  0  0  0  0
 25 27  1  0  0  0  0
 25 26  2  0  0  0  0
 28 25  2  0  0  0  0
 29 37  1  6  0  0  0
 29  1  1  0  0  0  0
 29 30  1  0  0  0  0
 30 36  1  0  0  0  0
 31 30  2  0  0  0  0
 31 33  1  0  0  0  0
 32 31  1  0  0  0  0
 33 34  1  0  0  0  0
 34 35  1  0  0  0  0
 36 34  2  0  0  0  0
 38 37  1  0  0  0  0
M  END
>  <POSE>
5

>  <SCORE>
-10.440

>  <RMSD_LB_BP>
1.649

>  <RMSD_UB_BP>
2.162

$$$$
/content/1PQ6_Docking/DOCKING/CLC-0000183/CLC-0000183_output.pdbqt
 OpenBabel03072503353D

 38 41  0  0  1  0  0  0  0  0999 V2000
   18.2780   -6.2720   59.7660 N   0  0  0  0  0  0  0  0  0  0  0  0
   18.1950   -5.8270   61.5000 S   0  0  0  0  0  0  0  0  0  0  0  0
   18.7940   -7.0040   62.2820 O   0  0  0  0  0  0  0  0  0  0  0  0
   16.7120   -5.9800   61.8730 O   0  0  0  0  0  0  0  0  0  0  0  0
   18.8180   -4.2440   62.0500 C   0  0  0  0  0  0  0  0  0  0  0  0
   18.0770   -3.2460   62.6400 C   0  0  0  0  0  3  0  0  0  0  0  0
   18.9150   -2.2300   62.9080 N   0  0  0  0  0  0  0  0  0  0  0  0
   18.5830   -0.9580   63.5340 C   0  0  0  0  0  1  0  0  0  0  0  0
   20.1320   -2.6230   62.4820 C   0  0  0  0  0  3  0  0  0  0  0  0
   20.1060   -3.8610   61.9470 N   0  0  0  0  0  0  0  0  0  0  0  0
   18.4120   -5.0390   58.9520 C   0  0  0  0  0  2  0  0  0  0  0  0
   17.2000   -4.1340   59.0890 C   0  0  0  0  0  0  0  0  0  0  0  0
   17.2500   -2.7190   59.2010 C   0  0  0  0  0  0  0  0  0  0  0  0
   18.5210   -1.9020   59.2130 C   0  0  0  0  0  1  0  0  0  0  0  0
   16.0480   -1.9940   59.3140 C   0  0  0  0  0  3  0  0  0  0  0  0
   14.7800   -2.6240   59.3280 C   0  0  0  0  0  0  0  0  0  0  0  0
   14.7690   -4.0320   59.2300 C   0  0  0  0  0  3  0  0  0  0  0  0
   15.9490   -4.7620   59.1160 C   0  0  0  0  0  3  0  0  0  0  0  0
   13.4910   -1.8260   59.4490 C   0  0  0  0  0  0  0  0  0  0  0  0
   13.4850   -0.4090   59.3740 C   0  0  0  0  0  3  0  0  0  0  0  0
   12.2990    0.3200   59.4890 C   0  0  0  0  0  3  0  0  0  0  0  0
   11.0870   -0.3320   59.6810 C   0  0  0  0  0  3  0  0  0  0  0  0
   11.0510   -1.7240   59.7590 C   0  0  0  0  0  0  0  0  0  0  0  0
   12.2370   -2.4620   59.6460 C   0  0  0  0  0  3  0  0  0  0  0  0
    9.4880   -2.5710   60.0140 S   0  0  0  0  0  0  0  0  0  0  0  0
    8.9170   -2.0750   61.3500 O   0  0  0  0  0  0  0  0  0  0  0  0
    8.1190   -2.6300   58.8240 C   0  0  0  0  0  1  0  0  0  0  0  0
    9.8070   -4.0150   60.4290 O   0  0  0  0  0  0  0  0  0  0  0  0
   19.2750   -7.3450   59.4630 C   0  0  2  0  0  3  0  0  0  0  0  0
   19.8280   -7.1530   58.0470 C   0  0  0  0  0  0  0  0  0  0  0  0
   19.1040   -7.4490   56.8800 C   0  0  0  0  0  0  0  0  0  0  0  0
   17.7030   -7.9530   56.7710 C   0  0  0  0  0  1  0  0  0  0  0  0
   20.0570   -7.1330   55.5300 S   0  0  0  0  0  0  0  0  0  0  0  0
   21.4000   -6.6180   56.3880 C   0  0  0  0  0  0  0  0  0  0  0  0
   22.6890   -6.1680   55.7850 C   0  0  0  0  0  1  0  0  0  0  0  0
   21.1290   -6.6850   57.7460 C   0  0  0  0  0  3  0  0  0  0  0  0
   18.7380   -8.7850   59.7310 C   0  0  0  0  0  2  0  0  0  0  0  0
   19.6360   -9.5800   60.6850 C   0  0  0  0  0  1  0  0  0  0  0  0
  1  2  1  0  0  0  0
  2  4  2  0  0  0  0
  2  5  1  0  0  0  0
  2  3  2  0  0  0  0
  5  6  2  0  0  0  0
  6  7  1  0  0  0  0
  7  8  1  0  0  0  0
  9  7  1  0  0  0  0
 10  5  1  0  0  0  0
 10  9  2  0  0  0  0
 11 12  1  0  0  0  0
 11  1  1  0  0  0  0
 12 18  2  0  0  0  0
 12 13  1  0  0  0  0
 13 14  1  0  0  0  0
 13 15  2  0  0  0  0
 15 16  1  0  0  0  0
 16 19  1  0  0  0  0
 17 16  2  0  0  0  0
 18 17  1  0  0  0  0
 19 24  1  0  0  0  0
 20 19  2  0  0  0  0
 20 21  1  0  0  0  0
 21 22  2  0  0  0  0
 22 23  1  0  0  0  0
 23 25  1  0  0  0  0
 24 23  2  0  0  0  0
 25 28  2  0  0  0  0
 25 26  2  0  0  0  0
 27 25  1  0  0  0  0
 29 37  1  6  0  0  0
 29  1  1  0  0  0  0
 30 29  1  0  0  0  0
 31 30  2  0  0  0  0
 32 31  1  0  0  0  0
 33 34  1  0  0  0  0
 33 31  1  0  0  0  0
 34 36  2  0  0  0  0
 35 34  1  0  0  0  0
 36 30  1  0  0  0  0
 37 38  1  0  0  0  0
M  END
>  <POSE>
6

>  <SCORE>
-10.200

>  <RMSD_LB_BP>
2.336

>  <RMSD_UB_BP>
5.434

$$$$
/content/1PQ6_Docking/DOCKING/CLC-0000183/CLC-0000183_output.pdbqt
 OpenBabel03072503353D

 38 41  0  0  1  0  0  0  0  0999 V2000
   17.7170   -4.5750   59.3800 N   0  0  0  0  0  0  0  0  0  0  0  0
   17.8610   -6.3210   59.0030 S   0  0  0  0  0  0  0  0  0  0  0  0
   16.4700   -6.7850   58.5470 O   0  0  0  0  0  0  0  0  0  0  0  0
   17.9420   -7.0120   60.3730 O   0  0  0  0  0  0  0  0  0  0  0  0
   19.1680   -6.9030   57.9310 C   0  0  0  0  0  0  0  0  0  0  0  0
   19.2450   -6.7040   56.5720 C   0  0  0  0  0  3  0  0  0  0  0  0
   20.3770   -7.2890   56.1460 N   0  0  0  0  0  0  0  0  0  0  0  0
   20.8820   -7.3380   54.7800 C   0  0  0  0  0  1  0  0  0  0  0  0
   20.9590   -7.8240   57.2370 C   0  0  0  0  0  3  0  0  0  0  0  0
   20.2380   -7.6030   58.3550 N   0  0  0  0  0  0  0  0  0  0  0  0
   17.0440   -4.4130   60.6920 C   0  0  0  0  0  2  0  0  0  0  0  0
   15.5710   -4.0770   60.5370 C   0  0  0  0  0  0  0  0  0  0  0  0
   14.4990   -4.8890   60.9950 C   0  0  0  0  0  0  0  0  0  0  0  0
   14.6650   -6.2170   61.6970 C   0  0  0  0  0  1  0  0  0  0  0  0
   13.1740   -4.4550   60.7960 C   0  0  0  0  0  3  0  0  0  0  0  0
   12.8630   -3.2380   60.1440 C   0  0  0  0  0  0  0  0  0  0  0  0
   13.9520   -2.4650   59.6880 C   0  0  0  0  0  3  0  0  0  0  0  0
   15.2670   -2.8780   59.8810 C   0  0  0  0  0  3  0  0  0  0  0  0
   11.4260   -2.7840   59.9380 C   0  0  0  0  0  0  0  0  0  0  0  0
   10.3450   -3.7040   59.9710 C   0  0  0  0  0  3  0  0  0  0  0  0
    9.0270   -3.2830   59.7780 C   0  0  0  0  0  3  0  0  0  0  0  0
    8.7420   -1.9420   59.5460 C   0  0  0  0  0  3  0  0  0  0  0  0
    9.7770   -1.0080   59.5090 C   0  0  0  0  0  0  0  0  0  0  0  0
   11.1020   -1.4230   59.7000 C   0  0  0  0  0  3  0  0  0  0  0  0
    9.4130    0.7240   59.2040 S   0  0  0  0  0  0  0  0  0  0  0  0
   10.3130    1.1790   58.0450 O   0  0  0  0  0  0  0  0  0  0  0  0
    7.7610    1.4160   58.9160 C   0  0  0  0  0  1  0  0  0  0  0  0
   10.0690    1.5380   60.3300 O   0  0  0  0  0  0  0  0  0  0  0  0
   18.9950   -3.8130   59.2230 C   0  0  2  0  0  3  0  0  0  0  0  0
   19.0240   -2.6420   60.2100 C   0  0  0  0  0  0  0  0  0  0  0  0
   19.4500   -2.7560   61.5440 C   0  0  0  0  0  0  0  0  0  0  0  0
   19.9720   -3.9680   62.2410 C   0  0  0  0  0  1  0  0  0  0  0  0
   19.3080   -1.2650   62.3110 S   0  0  0  0  0  0  0  0  0  0  0  0
   18.7070   -0.4460   60.9790 C   0  0  0  0  0  0  0  0  0  0  0  0
   18.3330    0.9980   60.9500 C   0  0  0  0  0  1  0  0  0  0  0  0
   18.6050   -1.3240   59.9100 C   0  0  0  0  0  3  0  0  0  0  0  0
   19.2900   -3.3930   57.7500 C   0  0  0  0  0  2  0  0  0  0  0  0
   18.0120   -3.2210   56.9210 C   0  0  0  0  0  1  0  0  0  0  0  0
  1 11  1  0  0  0  0
  2  1  1  0  0  0  0
  2  4  2  0  0  0  0
  3  2  2  0  0  0  0
  5 10  1  0  0  0  0
  5  2  1  0  0  0  0
  6  5  2  0  0  0  0
  7  6  1  0  0  0  0
  7  9  1  0  0  0  0
  8  7  1  0  0  0  0
  9 10  2  0  0  0  0
 12 11  1  0  0  0  0
 12 13  1  0  0  0  0
 13 14  1  0  0  0  0
 15 13  2  0  0  0  0
 16 15  1  0  0  0  0
 17 18  1  0  0  0  0
 17 16  2  0  0  0  0
 18 12  2  0  0  0  0
 19 20  1  0  0  0  0
 19 16  1  0  0  0  0
 21 20  2  0  0  0  0
 22 21  1  0  0  0  0
 23 22  2  0  0  0  0
 23 24  1  0  0  0  0
 24 19  2  0  0  0  0
 25 23  1  0  0  0  0
 25 28  2  0  0  0  0
 26 25  2  0  0  0  0
 27 25  1  0  0  0  0
 29 37  1  6  0  0  0
 29  1  1  0  0  0  0
 29 30  1  0  0  0  0
 30 31  2  0  0  0  0
 31 32  1  0  0  0  0
 31 33  1  0  0  0  0
 34 33  1  0  0  0  0
 35 34  1  0  0  0  0
 36 30  1  0  0  0  0
 36 34  2  0  0  0  0
 38 37  1  0  0  0  0
M  END
>  <POSE>
7

>  <SCORE>
-9.943

>  <RMSD_LB_BP>
0.972

>  <RMSD_UB_BP>
1.785

$$$$
/content/1PQ6_Docking/DOCKING/CLC-0000183/CLC-0000183_output.pdbqt
 OpenBabel03072503353D

 38 41  0  0  1  0  0  0  0  0999 V2000
   18.0690   -5.3510   60.3430 N   0  0  0  0  0  0  0  0  0  0  0  0
   19.2990   -6.4430   59.6320 S   0  0  0  0  0  0  0  0  0  0  0  0
   19.2640   -7.7360   60.4590 O   0  0  0  0  0  0  0  0  0  0  0  0
   20.6470   -5.8650   60.0880 O   0  0  0  0  0  0  0  0  0  0  0  0
   19.3150   -6.7500   57.8700 C   0  0  0  0  0  0  0  0  0  0  0  0
   20.3990   -6.6030   57.0360 C   0  0  0  0  0  3  0  0  0  0  0  0
   19.9980   -6.9400   55.7980 N   0  0  0  0  0  0  0  0  0  0  0  0
   20.8030   -6.9410   54.5830 C   0  0  0  0  0  1  0  0  0  0  0  0
   18.6990   -7.2790   55.9010 C   0  0  0  0  0  3  0  0  0  0  0  0
   18.2460   -7.1730   57.1670 N   0  0  0  0  0  0  0  0  0  0  0  0
   16.8770   -6.1450   60.7280 C   0  0  0  0  0  2  0  0  0  0  0  0
   15.5870   -5.3690   60.5250 C   0  0  0  0  0  0  0  0  0  0  0  0
   15.3100   -4.5280   59.4150 C   0  0  0  0  0  0  0  0  0  0  0  0
   16.2650   -4.2690   58.2730 C   0  0  0  0  0  1  0  0  0  0  0  0
   14.0670   -3.8690   59.3430 C   0  0  0  0  0  3  0  0  0  0  0  0
   13.0760   -4.0070   60.3450 C   0  0  0  0  0  0  0  0  0  0  0  0
   13.3910   -4.8390   61.4410 C   0  0  0  0  0  3  0  0  0  0  0  0
   14.6140   -5.4980   61.5250 C   0  0  0  0  0  3  0  0  0  0  0  0
   11.7380   -3.2900   60.2510 C   0  0  0  0  0  0  0  0  0  0  0  0
   10.5170   -3.9610   60.5200 C   0  0  0  0  0  3  0  0  0  0  0  0
    9.2890   -3.3000   60.4290 C   0  0  0  0  0  3  0  0  0  0  0  0
    9.2360   -1.9580   60.0700 C   0  0  0  0  0  3  0  0  0  0  0  0
   10.4150   -1.2640   59.8000 C   0  0  0  0  0  0  0  0  0  0  0  0
   11.6500   -1.9210   59.8870 C   0  0  0  0  0  3  0  0  0  0  0  0
   10.3510    0.4680   59.3300 S   0  0  0  0  0  0  0  0  0  0  0  0
   11.6580    0.7850   58.5880 O   0  0  0  0  0  0  0  0  0  0  0  0
    8.9980    1.2580   58.4150 C   0  0  0  0  0  1  0  0  0  0  0  0
   10.6040    1.3000   60.5960 O   0  0  0  0  0  0  0  0  0  0  0  0
   18.6030   -4.4480   61.4090 C   0  0  2  0  0  3  0  0  0  0  0  0
   18.6700   -3.0100   60.8840 C   0  0  0  0  0  0  0  0  0  0  0  0
   18.2350   -1.8920   61.6150 C   0  0  0  0  0  0  0  0  0  0  0  0
   17.6760   -1.8590   62.9990 C   0  0  0  0  0  1  0  0  0  0  0  0
   18.4450   -0.5000   60.6940 S   0  0  0  0  0  0  0  0  0  0  0  0
   19.0870   -1.2770   59.3560 C   0  0  0  0  0  0  0  0  0  0  0  0
   19.5170   -0.6090   58.0930 C   0  0  0  0  0  1  0  0  0  0  0  0
   19.1490   -2.6400   59.6050 C   0  0  0  0  0  3  0  0  0  0  0  0
   19.9440   -4.9470   62.0300 C   0  0  0  0  0  2  0  0  0  0  0  0
   20.6900   -3.8410   62.7850 C   0  0  0  0  0  1  0  0  0  0  0  0
  1 11  1  0  0  0  0
  1 29  1  0  0  0  0
  2  4  2  0  0  0  0
  2  1  1  0  0  0  0
  2  3  2  0  0  0  0
  5  2  1  0  0  0  0
  6  5  2  0  0  0  0
  7  9  1  0  0  0  0
  7  6  1  0  0  0  0
  8  7  1  0  0  0  0
  9 10  2  0  0  0  0
 10  5  1  0  0  0  0
 12 11  1  0  0  0  0
 12 18  1  0  0  0  0
 13 12  2  0  0  0  0
 14 13  1  0  0  0  0
 15 13  1  0  0  0  0
 15 16  2  0  0  0  0
 16 17  1  0  0  0  0
 17 18  2  0  0  0  0
 19 16  1  0  0  0  0
 19 20  1  0  0  0  0
 21 20  2  0  0  0  0
 22 21  1  0  0  0  0
 23 24  1  0  0  0  0
 23 22  2  0  0  0  0
 24 19  2  0  0  0  0
 25 23  1  0  0  0  0
 25 28  2  0  0  0  0
 26 25  2  0  0  0  0
 27 25  1  0  0  0  0
 29 37  1  6  0  0  0
 30 29  1  0  0  0  0
 30 31  2  0  0  0  0
 31 32  1  0  0  0  0
 33 31  1  0  0  0  0
 34 36  2  0  0  0  0
 34 33  1  0  0  0  0
 35 34  1  0  0  0  0
 36 30  1  0  0  0  0
 37 38  1  0  0  0  0
M  END
>  <POSE>
8

>  <SCORE>
-9.596

>  <RMSD_LB_BP>
1.490

>  <RMSD_UB_BP>
2.647

$$$$
/content/1PQ6_Docking/DOCKING/CLC-0000183/CLC-0000183_output.pdbqt
 OpenBabel03072503353D

 38 41  0  0  1  0  0  0  0  0999 V2000
   17.5900   -5.8800   59.4350 N   0  0  0  0  0  0  0  0  0  0  0  0
   18.6260   -7.2700   58.9840 S   0  0  0  0  0  0  0  0  0  0  0  0
   17.6780   -8.4240   58.6280 O   0  0  0  0  0  0  0  0  0  0  0  0
   19.1930   -7.7870   60.3160 O   0  0  0  0  0  0  0  0  0  0  0  0
   19.9380   -7.0600   57.7870 C   0  0  0  0  0  0  0  0  0  0  0  0
   19.8130   -7.1910   56.4230 C   0  0  0  0  0  3  0  0  0  0  0  0
   21.0210   -6.9460   55.8860 N   0  0  0  0  0  0  0  0  0  0  0  0
   21.3760   -6.9670   54.4730 C   0  0  0  0  0  1  0  0  0  0  0  0
   21.8450   -6.6760   56.9170 C   0  0  0  0  0  3  0  0  0  0  0  0
   21.2070   -6.7380   58.1050 N   0  0  0  0  0  0  0  0  0  0  0  0
   16.1980   -6.3540   59.6310 C   0  0  0  0  0  2  0  0  0  0  0  0
   15.2110   -5.2020   59.7060 C   0  0  0  0  0  0  0  0  0  0  0  0
   14.3420   -4.9450   60.7990 C   0  0  0  0  0  0  0  0  0  0  0  0
   14.2610   -5.7890   62.0500 C   0  0  0  0  0  1  0  0  0  0  0  0
   13.4780   -3.8340   60.7460 C   0  0  0  0  0  3  0  0  0  0  0  0
   13.4340   -2.9590   59.6350 C   0  0  0  0  0  0  0  0  0  0  0  0
   14.3000   -3.2530   58.5600 C   0  0  0  0  0  3  0  0  0  0  0  0
   15.1610   -4.3460   58.5990 C   0  0  0  0  0  3  0  0  0  0  0  0
   12.4960   -1.7630   59.5940 C   0  0  0  0  0  0  0  0  0  0  0  0
   12.9610   -0.4670   59.2490 C   0  0  0  0  0  3  0  0  0  0  0  0
   12.0980    0.6310   59.2160 C   0  0  0  0  0  3  0  0  0  0  0  0
   10.7500    0.4770   59.5230 C   0  0  0  0  0  3  0  0  0  0  0  0
   10.2550   -0.7810   59.8650 C   0  0  0  0  0  0  0  0  0  0  0  0
   11.1160   -1.8860   59.9020 C   0  0  0  0  0  3  0  0  0  0  0  0
    8.5170   -0.9830   60.2690 S   0  0  0  0  0  0  0  0  0  0  0  0
    8.4220   -1.1520   61.7920 O   0  0  0  0  0  0  0  0  0  0  0  0
    7.1830    0.1360   59.7590 C   0  0  0  0  0  1  0  0  0  0  0  0
    8.1100   -2.4080   59.8600 O   0  0  0  0  0  0  0  0  0  0  0  0
   18.1410   -5.0500   60.5510 C   0  0  2  0  0  3  0  0  0  0  0  0
   18.0200   -3.5640   60.1980 C   0  0  0  0  0  0  0  0  0  0  0  0
   17.5660   -2.5830   61.0960 C   0  0  0  0  0  0  0  0  0  0  0  0
   17.1590   -2.7600   62.5220 C   0  0  0  0  0  1  0  0  0  0  0  0
   17.5490   -1.0840   60.3330 S   0  0  0  0  0  0  0  0  0  0  0  0
   18.1120   -1.6400   58.8560 C   0  0  0  0  0  0  0  0  0  0  0  0
   18.3410   -0.7970   57.6470 C   0  0  0  0  0  1  0  0  0  0  0  0
   18.3230   -3.0080   58.9330 C   0  0  0  0  0  3  0  0  0  0  0  0
   19.5780   -5.4720   60.9870 C   0  0  0  0  0  2  0  0  0  0  0  0
   20.2300   -4.4520   61.9280 C   0  0  0  0  0  1  0  0  0  0  0  0
  1 11  1  0  0  0  0
  1 29  1  0  0  0  0
  2  1  1  0  0  0  0
  2  4  2  0  0  0  0
  3  2  2  0  0  0  0
  5 10  1  0  0  0  0
  5  2  1  0  0  0  0
  6  5  2  0  0  0  0
  7  6  1  0  0  0  0
  7  9  1  0  0  0  0
  8  7  1  0  0  0  0
  9 10  2  0  0  0  0
 11 12  1  0  0  0  0
 12 13  1  0  0  0  0
 13 14  1  0  0  0  0
 15 13  2  0  0  0  0
 16 15  1  0  0  0  0
 17 18  1  0  0  0  0
 17 16  2  0  0  0  0
 18 12  2  0  0  0  0
 19 16  1  0  0  0  0
 19 24  1  0  0  0  0
 20 19  2  0  0  0  0
 21 20  1  0  0  0  0
 21 22  2  0  0  0  0
 22 23  1  0  0  0  0
 23 24  2  0  0  0  0
 23 25  1  0  0  0  0
 25 26  2  0  0  0  0
 27 25  1  0  0  0  0
 28 25  2  0  0  0  0
 29 37  1  6  0  0  0
 30 29  1  0  0  0  0
 30 31  2  0  0  0  0
 31 32  1  0  0  0  0
 33 31  1  0  0  0  0
 34 36  2  0  0  0  0
 34 33  1  0  0  0  0
 35 34  1  0  0  0  0
 36 30  1  0  0  0  0
 37 38  1  0  0  0  0
M  END
>  <POSE>
9

>  <SCORE>
-9.562

>  <RMSD_LB_BP>
1.768

>  <RMSD_UB_BP>
2.832

$$$$
