REMARK  12 active torsions:
REMARK  status: ('A' for Active; 'I' for Inactive)
REMARK    1  A    between atoms: C_3  and  C_2 
REMARK    2  A    between atoms: C_4  and  C_3 
REMARK    3  A    between atoms: C_5  and  C_4 
REMARK    4  A    between atoms: C_5  and  C_7 
REMARK    5  A    between atoms: C_5  and  N_6 
REMARK    6  A    between atoms: S_8  and  N_6 
REMARK    7  A    between atoms: N_6  and  C_9 
REMARK    8  A    between atoms: S_8  and  C_12 
REMARK    9  A    between atoms: C_9  and  C_20 
REMARK   10  A    between atoms: C_30  and  C_31 
REMARK   11  A    between atoms: C_35  and  S_37 
REMARK   12  A    between atoms: S_37  and  C_38 
ROOT
ATOM      1  N   UNL d   1       4.365   0.932  -0.984  0.00  0.00    -0.192 NA
ENDROOT
BRANCH   1   2
ATOM      2  S   UNL d   1       3.766   1.868   0.430  0.00  0.00     0.263 S 
ATOM      3  O   UNL d   1       2.950   0.839   1.228  0.00  0.00    -0.204 OA
ATOM      4  O   UNL d   1       2.631   2.780  -0.052  0.00  0.00    -0.204 OA
BRANCH   2   5
ATOM      5  C   UNL d   1       4.909   2.686   1.542  0.00  0.00     0.183 A 
ATOM      6  C   UNL d   1       4.624   3.085   2.828  0.00  0.00     0.136 A 
ATOM      7  N   UNL d   1       5.737   3.640   3.332  0.00  0.00    -0.353 N 
ATOM      8  C   UNL d   1       5.896   4.199   4.668  0.00  0.00     0.156 C 
ATOM      9  C   UNL d   1       6.668   3.573   2.361  0.00  0.00     0.210 A 
ATOM     10  N   UNL d   1       6.189   2.986   1.245  0.00  0.00    -0.229 NA
ENDBRANCH   2   5
ENDBRANCH   1   2
BRANCH   1  11
ATOM     11  C   UNL d   1       5.452   0.009  -0.582  0.00  0.00     0.147 C 
BRANCH  11  12
ATOM     12  C   UNL d   1       4.945  -1.077   0.347  0.00  0.00    -0.038 A 
ATOM     13  C   UNL d   1       5.503  -1.332   1.621  0.00  0.00    -0.054 A 
ATOM     14  C   UNL d   1       6.674  -0.542   2.148  0.00  0.00     0.049 C 
ATOM     15  C   UNL d   1       4.966  -2.358   2.421  0.00  0.00     0.019 A 
ATOM     16  C   UNL d   1       3.878  -3.156   1.991  0.00  0.00    -0.025 A 
ATOM     17  C   UNL d   1       3.353  -2.882   0.708  0.00  0.00     0.013 A 
ATOM     18  C   UNL d   1       3.878  -1.869  -0.092  0.00  0.00     0.010 A 
BRANCH  16  19
ATOM     19  C   UNL d   1       3.301  -4.257   2.867  0.00  0.00    -0.025 A 
ATOM     20  C   UNL d   1       2.248  -5.092   2.411  0.00  0.00     0.012 A 
ATOM     21  C   UNL d   1       1.717  -6.100   3.220  0.00  0.00     0.002 A 
ATOM     22  C   UNL d   1       2.214  -6.309   4.502  0.00  0.00     0.023 A 
ATOM     23  C   UNL d   1       3.250  -5.511   4.984  0.00  0.00     0.060 A 
ATOM     24  C   UNL d   1       3.785  -4.497   4.179  0.00  0.00     0.035 A 
BRANCH  23  25
ATOM     25  S   UNL d   1       3.890  -5.772   6.642  0.00  0.00     0.175 S 
ATOM     26  O   UNL d   1       5.420  -5.645   6.559  0.00  0.00    -0.223 OA
ATOM     27  O   UNL d   1       3.800  -7.278   6.936  0.00  0.00    -0.223 OA
BRANCH  25  28
ATOM     28  C   UNL d   1       3.326  -4.870   8.122  0.00  0.00     0.141 C 
ATOM     29  C   UNL d   1       4.111  -5.293   9.357  0.00  0.00     0.021 C 
ENDBRANCH  25  28
ENDBRANCH  23  25
ENDBRANCH  16  19
ENDBRANCH  11  12
ENDBRANCH   1  11
BRANCH   1  30
ATOM     30  C   UNL d   1       4.706   1.692  -2.224  0.00  0.00     0.108 C 
BRANCH  30  31
ATOM     31  C   UNL d   1       5.700   2.828  -1.997  0.00  0.00    -0.026 A 
ATOM     32  C   UNL d   1       7.052   2.781  -2.374  0.00  0.00    -0.013 A 
ATOM     33  C   UNL d   1       7.777   1.642  -3.018  0.00  0.00     0.057 C 
ATOM     34  S   UNL d   1       7.792   4.236  -1.964  0.00  0.00    -0.100 SA
ATOM     35  C   UNL d   1       6.419   4.950  -1.318  0.00  0.00    -0.020 A 
ATOM     36  C   UNL d   1       6.350   6.321  -0.736  0.00  0.00     0.056 C 
ATOM     37  C   UNL d   1       5.357   4.062  -1.409  0.00  0.00     0.024 A 
ENDBRANCH  30  31
BRANCH  30  38
ATOM     38  C   UNL d   1       3.430   2.160  -2.970  0.00  0.00     0.026 C 
BRANCH  38  39
ATOM     39  C   UNL d   1       3.680   2.805  -4.351  0.00  0.00     0.002 C 
BRANCH  39  40
ATOM     40  C   UNL d   1       4.321   1.888  -5.409  0.00  0.00    -0.004 C 
ATOM     41  C   UNL d   1       3.473   0.659  -5.735  0.00  0.00     0.005 C 
ENDBRANCH  39  40
ENDBRANCH  38  39
ENDBRANCH  30  38
ENDBRANCH   1  30
TORSDOF 12
