REMARK  12 active torsions:
REMARK  status: ('A' for Active; 'I' for Inactive)
REMARK    1  A    between atoms: C_3  and  C_2 
REMARK    2  A    between atoms: C_4  and  C_3 
REMARK    3  A    between atoms: C_5  and  C_4 
REMARK    4  A    between atoms: C_5  and  C_7 
REMARK    5  A    between atoms: C_5  and  N_6 
REMARK    6  A    between atoms: S_8  and  N_6 
REMARK    7  A    between atoms: N_6  and  C_9 
REMARK    8  A    between atoms: S_8  and  C_12 
REMARK    9  A    between atoms: C_9  and  C_20 
REMARK   10  A    between atoms: C_30  and  C_31 
REMARK   11  A    between atoms: C_35  and  S_37 
REMARK   12  A    between atoms: S_37  and  C_38 
ROOT
ATOM      1  N   UNL d   1       4.948   1.349   0.398  0.00  0.00    -0.192 NA
ENDROOT
BRANCH   1   2
ATOM      2  S   UNL d   1       3.443   1.268   1.367  0.00  0.00     0.263 S 
ATOM      3  O   UNL d   1       3.587   2.241   2.546  0.00  0.00    -0.204 OA
ATOM      4  O   UNL d   1       3.564  -0.080   2.094  0.00  0.00    -0.204 OA
BRANCH   2   5
ATOM      5  C   UNL d   1       1.856   1.373   0.542  0.00  0.00     0.183 A 
ATOM      6  C   UNL d   1       0.727   0.661   0.880  0.00  0.00     0.136 A 
ATOM      7  N   UNL d   1      -0.245   1.021   0.025  0.00  0.00    -0.353 N 
ATOM      8  C   UNL d   1      -1.617   0.530  -0.005  0.00  0.00     0.156 C 
ATOM      9  C   UNL d   1       0.300   1.930  -0.806  0.00  0.00     0.210 A 
ATOM     10  N   UNL d   1       1.594   2.170  -0.513  0.00  0.00    -0.229 NA
ENDBRANCH   2   5
ENDBRANCH   1   2
BRANCH   1  11
ATOM     11  C   UNL d   1       4.758   0.549  -0.836  0.00  0.00     0.147 C 
BRANCH  11  12
ATOM     12  C   UNL d   1       6.077   0.127  -1.450  0.00  0.00    -0.038 A 
ATOM     13  C   UNL d   1       6.494   0.528  -2.740  0.00  0.00    -0.054 A 
ATOM     14  C   UNL d   1       5.647   1.432  -3.599  0.00  0.00     0.049 C 
ATOM     15  C   UNL d   1       7.731   0.079  -3.239  0.00  0.00     0.019 A 
ATOM     16  C   UNL d   1       8.581  -0.771  -2.489  0.00  0.00    -0.025 A 
ATOM     17  C   UNL d   1       8.128  -1.158  -1.208  0.00  0.00     0.013 A 
ATOM     18  C   UNL d   1       6.903  -0.721  -0.706  0.00  0.00     0.010 A 
BRANCH  16  19
ATOM     19  C   UNL d   1       9.915  -1.248  -3.035  0.00  0.00    -0.025 A 
ATOM     20  C   UNL d   1      10.818  -1.996  -2.235  0.00  0.00     0.012 A 
ATOM     21  C   UNL d   1      12.046  -2.431  -2.739  0.00  0.00     0.002 A 
ATOM     22  C   UNL d   1      12.413  -2.141  -4.048  0.00  0.00     0.023 A 
ATOM     23  C   UNL d   1      11.551  -1.412  -4.866  0.00  0.00     0.060 A 
ATOM     24  C   UNL d   1      10.320  -0.968  -4.366  0.00  0.00     0.035 A 
BRANCH  23  25
ATOM     25  S   UNL d   1      12.023  -1.034  -6.558  0.00  0.00     0.175 S 
ATOM     26  O   UNL d   1      10.773  -1.234  -7.429  0.00  0.00    -0.223 OA
ATOM     27  O   UNL d   1      12.854  -2.218  -7.076  0.00  0.00    -0.223 OA
BRANCH  25  28
ATOM     28  C   UNL d   1      12.839   0.507  -7.086  0.00  0.00     0.141 C 
ATOM     29  C   UNL d   1      13.089   0.510  -8.589  0.00  0.00     0.021 C 
ENDBRANCH  25  28
ENDBRANCH  23  25
ENDBRANCH  16  19
ENDBRANCH  11  12
ENDBRANCH   1  11
BRANCH   1  30
ATOM     30  C   UNL d   1       5.465   2.734   0.170  0.00  0.00     0.108 C 
BRANCH  30  31
ATOM     31  C   UNL d   1       6.033   3.297   1.480  0.00  0.00    -0.026 A 
ATOM     32  C   UNL d   1       7.152   2.761   2.143  0.00  0.00    -0.013 A 
ATOM     33  C   UNL d   1       8.011   1.619   1.716  0.00  0.00     0.057 C 
ATOM     34  S   UNL d   1       7.447   3.633   3.550  0.00  0.00    -0.100 SA
ATOM     35  C   UNL d   1       6.178   4.707   3.354  0.00  0.00    -0.020 A 
ATOM     36  C   UNL d   1       5.829   5.812   4.293  0.00  0.00     0.056 C 
ATOM     37  C   UNL d   1       5.498   4.402   2.185  0.00  0.00     0.024 A 
ENDBRANCH  30  31
BRANCH  30  38
ATOM     38  C   UNL d   1       4.418   3.672  -0.507  0.00  0.00     0.026 C 
BRANCH  38  39
ATOM     39  C   UNL d   1       5.043   4.990  -1.006  0.00  0.00     0.002 C 
BRANCH  39  40
ATOM     40  C   UNL d   1       3.986   5.873  -1.680  0.00  0.00    -0.004 C 
ATOM     41  C   UNL d   1       4.600   7.172  -2.193  0.00  0.00     0.005 C 
ENDBRANCH  39  40
ENDBRANCH  38  39
ENDBRANCH  30  38
ENDBRANCH   1  30
TORSDOF 12
