MODEL 1
REMARK VINA RESULT:   -11.566      0.000      0.000
REMARK INTER + INTRA:         -19.657
REMARK INTER:                 -17.849
REMARK INTRA:                  -1.808
REMARK UNBOUND:                 0.023
REMARK  12 active torsions:
REMARK  status: ('A' for Active; 'I' for Inactive)
REMARK    1  A    between atoms: C_3  and  C_2 
REMARK    2  A    between atoms: C_4  and  C_3 
REMARK    3  A    between atoms: C_5  and  C_4 
REMARK    4  A    between atoms: C_5  and  C_7 
REMARK    5  A    between atoms: C_5  and  N_6 
REMARK    6  A    between atoms: S_8  and  N_6 
REMARK    7  A    between atoms: N_6  and  C_9 
REMARK    8  A    between atoms: S_8  and  C_12 
REMARK    9  A    between atoms: C_9  and  C_20 
REMARK   10  A    between atoms: C_30  and  C_31 
REMARK   11  A    between atoms: C_35  and  S_37 
REMARK   12  A    between atoms: S_37  and  C_38 
ROOT
ATOM      1  N   UNL d   1      17.605  -4.421  59.793  0.00  0.00    -0.192 NA
ENDROOT
BRANCH   1   2
ATOM      2  S   UNL d   1      18.607  -3.860  58.418  0.00  0.00     0.263 S 
ATOM      3  O   UNL d   1      19.678  -2.907  58.971  0.00  0.00    -0.204 OA
ATOM      4  O   UNL d   1      17.687  -2.864  57.695  0.00  0.00    -0.204 OA
BRANCH   2   5
ATOM      5  C   UNL d   1      19.248  -5.055  57.247  0.00  0.00     0.183 A 
ATOM      6  C   UNL d   1      20.579  -5.269  56.966  0.00  0.00     0.136 A 
ATOM      7  N   UNL d   1      20.642  -6.241  56.040  0.00  0.00    -0.353 N 
ATOM      8  C   UNL d   1      21.843  -6.804  55.436  0.00  0.00     0.156 C 
ATOM      9  C   UNL d   1      19.370  -6.594  55.776  0.00  0.00     0.210 A 
ATOM     10  N   UNL d   1      18.486  -5.883  56.505  0.00  0.00    -0.229 NA
ENDBRANCH   2   5
ENDBRANCH   1   2
BRANCH   1  11
ATOM     11  C   UNL d   1      16.510  -5.269  59.263  0.00  0.00     0.147 C 
BRANCH  11  12
ATOM     12  C   UNL d   1      15.145  -4.672  59.536  0.00  0.00    -0.038 A 
ATOM     13  C   UNL d   1      14.368  -5.002  60.670  0.00  0.00    -0.054 A 
ATOM     14  C   UNL d   1      14.862  -5.974  61.711  0.00  0.00     0.049 C 
ATOM     15  C   UNL d   1      13.103  -4.409  60.840  0.00  0.00     0.019 A 
ATOM     16  C   UNL d   1      12.573  -3.486  59.904  0.00  0.00    -0.025 A 
ATOM     17  C   UNL d   1      13.373  -3.187  58.779  0.00  0.00     0.013 A 
ATOM     18  C   UNL d   1      14.627  -3.771  58.600  0.00  0.00     0.010 A 
BRANCH  16  19
ATOM     19  C   UNL d   1      11.208  -2.850  60.097  0.00  0.00    -0.025 A 
ATOM     20  C   UNL d   1      10.139  -3.561  60.702  0.00  0.00     0.012 A 
ATOM     21  C   UNL d   1       8.883  -2.974  60.875  0.00  0.00     0.002 A 
ATOM     22  C   UNL d   1       8.652  -1.668  60.459  0.00  0.00     0.023 A 
ATOM     23  C   UNL d   1       9.679  -0.936  59.865  0.00  0.00     0.060 A 
ATOM     24  C   UNL d   1      10.940  -1.520  59.683  0.00  0.00     0.035 A 
BRANCH  23  25
ATOM     25  S   UNL d   1       9.383   0.752  59.324  0.00  0.00     0.175 S 
ATOM     26  O   UNL d   1      10.386   1.046  58.198  0.00  0.00    -0.223 OA
ATOM     27  O   UNL d   1       9.966   1.684  60.397  0.00  0.00    -0.223 OA
BRANCH  25  28
ATOM     28  C   UNL d   1       7.760   1.409  58.821  0.00  0.00     0.141 C 
ATOM     29  C   UNL d   1       7.866   2.201  57.524  0.00  0.00     0.021 C 
ENDBRANCH  25  28
ENDBRANCH  23  25
ENDBRANCH  16  19
ENDBRANCH  11  12
ENDBRANCH   1  11
BRANCH   1  30
ATOM     30  C   UNL d   1      18.381  -5.034  60.916  0.00  0.00     0.108 C 
BRANCH  30  31
ATOM     31  C   UNL d   1      18.886  -3.932  61.857  0.00  0.00    -0.026 A 
ATOM     32  C   UNL d   1      18.176  -2.750  62.132  0.00  0.00    -0.013 A 
ATOM     33  C   UNL d   1      16.829  -2.351  61.630  0.00  0.00     0.057 C 
ATOM     34  S   UNL d   1      19.066  -1.787  63.184  0.00  0.00    -0.100 SA
ATOM     35  C   UNL d   1      20.362  -2.838  63.323  0.00  0.00    -0.020 A 
ATOM     36  C   UNL d   1      21.583  -2.600  64.145  0.00  0.00     0.056 C 
ATOM     37  C   UNL d   1      20.123  -3.961  62.546  0.00  0.00     0.024 A 
ENDBRANCH  30  31
BRANCH  30  38
ATOM     38  C   UNL d   1      19.507  -5.997  60.425  0.00  0.00     0.026 C 
BRANCH  38  39
ATOM     39  C   UNL d   1      19.074  -7.476  60.462  0.00  0.00     0.002 C 
BRANCH  39  40
ATOM     40  C   UNL d   1      19.574  -8.221  59.218  0.00  0.00    -0.004 C 
ATOM     41  C   UNL d   1      18.434  -8.959  58.524  0.00  0.00     0.005 C 
ENDBRANCH  39  40
ENDBRANCH  38  39
ENDBRANCH  30  38
ENDBRANCH   1  30
TORSDOF 12
ENDMDL
MODEL 2
REMARK VINA RESULT:   -11.414      2.057      2.870
REMARK INTER + INTRA:         -19.398
REMARK INTER:                 -17.675
REMARK INTRA:                  -1.723
REMARK UNBOUND:                 0.023
REMARK  12 active torsions:
REMARK  status: ('A' for Active; 'I' for Inactive)
REMARK    1  A    between atoms: C_3  and  C_2 
REMARK    2  A    between atoms: C_4  and  C_3 
REMARK    3  A    between atoms: C_5  and  C_4 
REMARK    4  A    between atoms: C_5  and  C_7 
REMARK    5  A    between atoms: C_5  and  N_6 
REMARK    6  A    between atoms: S_8  and  N_6 
REMARK    7  A    between atoms: N_6  and  C_9 
REMARK    8  A    between atoms: S_8  and  C_12 
REMARK    9  A    between atoms: C_9  and  C_20 
REMARK   10  A    between atoms: C_30  and  C_31 
REMARK   11  A    between atoms: C_35  and  S_37 
REMARK   12  A    between atoms: S_37  and  C_38 
ROOT
ATOM      1  N   UNL d   1      17.569  -4.194  59.513  0.00  0.00    -0.192 NA
ENDROOT
BRANCH   1   2
ATOM      2  S   UNL d   1      17.864  -5.929  59.173  0.00  0.00     0.263 S 
ATOM      3  O   UNL d   1      16.525  -6.566  58.773  0.00  0.00    -0.204 OA
ATOM      4  O   UNL d   1      18.061  -6.533  60.571  0.00  0.00    -0.204 OA
BRANCH   2   5
ATOM      5  C   UNL d   1      19.227  -6.400  58.110  0.00  0.00     0.183 A 
ATOM      6  C   UNL d   1      19.196  -6.435  56.734  0.00  0.00     0.136 A 
ATOM      7  N   UNL d   1      20.408  -6.838  56.316  0.00  0.00    -0.353 N 
ATOM      8  C   UNL d   1      20.847  -7.025  54.939  0.00  0.00     0.156 C 
ATOM      9  C   UNL d   1      21.143  -7.039  57.426  0.00  0.00     0.210 A 
ATOM     10  N   UNL d   1      20.444  -6.777  58.549  0.00  0.00    -0.229 NA
ENDBRANCH   2   5
ENDBRANCH   1   2
BRANCH   1  11
ATOM     11  C   UNL d   1      16.822  -4.084  60.789  0.00  0.00     0.147 C 
BRANCH  11  12
ATOM     12  C   UNL d   1      15.354  -3.783  60.565  0.00  0.00    -0.038 A 
ATOM     13  C   UNL d   1      14.316  -4.667  60.940  0.00  0.00    -0.054 A 
ATOM     14  C   UNL d   1      14.605  -5.983  61.615  0.00  0.00     0.049 C 
ATOM     15  C   UNL d   1      12.978  -4.313  60.683  0.00  0.00     0.019 A 
ATOM     16  C   UNL d   1      12.630  -3.093  60.053  0.00  0.00    -0.025 A 
ATOM     17  C   UNL d   1      13.694  -2.238  59.685  0.00  0.00     0.013 A 
ATOM     18  C   UNL d   1      15.022  -2.581  59.932  0.00  0.00     0.010 A 
BRANCH  16  19
ATOM     19  C   UNL d   1      11.184  -2.719  59.783  0.00  0.00    -0.025 A 
ATOM     20  C   UNL d   1      10.166  -3.705  59.704  0.00  0.00     0.012 A 
ATOM     21  C   UNL d   1       8.837  -3.359  59.452  0.00  0.00     0.002 A 
ATOM     22  C   UNL d   1       8.477  -2.028  59.274  0.00  0.00     0.023 A 
ATOM     23  C   UNL d   1       9.448  -1.030  59.347  0.00  0.00     0.060 A 
ATOM     24  C   UNL d   1      10.784  -1.370  59.595  0.00  0.00     0.035 A 
BRANCH  23  25
ATOM     25  S   UNL d   1       8.986   0.691  59.115  0.00  0.00     0.175 S 
ATOM     26  O   UNL d   1       9.753   1.508  60.167  0.00  0.00    -0.223 OA
ATOM     27  O   UNL d   1       7.568   0.864  59.681  0.00  0.00    -0.223 OA
BRANCH  25  28
ATOM     28  C   UNL d   1       9.078   1.583  57.529  0.00  0.00     0.141 C 
ATOM     29  C   UNL d   1       7.790   2.347  57.252  0.00  0.00     0.021 C 
ENDBRANCH  25  28
ENDBRANCH  23  25
ENDBRANCH  16  19
ENDBRANCH  11  12
ENDBRANCH   1  11
BRANCH   1  30
ATOM     30  C   UNL d   1      18.787  -3.330  59.427  0.00  0.00     0.108 C 
BRANCH  30  31
ATOM     31  C   UNL d   1      19.261  -2.961  60.840  0.00  0.00    -0.026 A 
ATOM     32  C   UNL d   1      18.866  -1.795  61.520  0.00  0.00    -0.013 A 
ATOM     33  C   UNL d   1      17.915  -0.743  61.058  0.00  0.00     0.057 C 
ATOM     34  S   UNL d   1      19.615  -1.736  63.024  0.00  0.00    -0.100 SA
ATOM     35  C   UNL d   1      20.448  -3.177  62.856  0.00  0.00    -0.020 A 
ATOM     36  C   UNL d   1      21.365  -3.768  63.874  0.00  0.00     0.056 C 
ATOM     37  C   UNL d   1      20.158  -3.731  61.619  0.00  0.00     0.024 A 
ENDBRANCH  30  31
BRANCH  30  38
ATOM     38  C   UNL d   1      18.594  -2.094  58.495  0.00  0.00     0.026 C 
BRANCH  38  39
ATOM     39  C   UNL d   1      19.884  -1.717  57.740  0.00  0.00     0.002 C 
BRANCH  39  40
ATOM     40  C   UNL d   1      20.447  -0.387  58.255  0.00  0.00    -0.004 C 
ATOM     41  C   UNL d   1      21.717   0.000  57.503  0.00  0.00     0.005 C 
ENDBRANCH  39  40
ENDBRANCH  38  39
ENDBRANCH  30  38
ENDBRANCH   1  30
TORSDOF 12
ENDMDL
MODEL 3
REMARK VINA RESULT:   -10.888      1.569      2.455
REMARK INTER + INTRA:         -18.503
REMARK INTER:                 -17.314
REMARK INTRA:                  -1.189
REMARK UNBOUND:                 0.023
REMARK  12 active torsions:
REMARK  status: ('A' for Active; 'I' for Inactive)
REMARK    1  A    between atoms: C_3  and  C_2 
REMARK    2  A    between atoms: C_4  and  C_3 
REMARK    3  A    between atoms: C_5  and  C_4 
REMARK    4  A    between atoms: C_5  and  C_7 
REMARK    5  A    between atoms: C_5  and  N_6 
REMARK    6  A    between atoms: S_8  and  N_6 
REMARK    7  A    between atoms: N_6  and  C_9 
REMARK    8  A    between atoms: S_8  and  C_12 
REMARK    9  A    between atoms: C_9  and  C_20 
REMARK   10  A    between atoms: C_30  and  C_31 
REMARK   11  A    between atoms: C_35  and  S_37 
REMARK   12  A    between atoms: S_37  and  C_38 
ROOT
ATOM      1  N   UNL d   1      18.859  -4.357  59.694  0.00  0.00    -0.192 NA
ENDROOT
BRANCH   1   2
ATOM      2  S   UNL d   1      19.088  -6.007  59.035  0.00  0.00     0.263 S 
ATOM      3  O   UNL d   1      17.744  -6.744  59.126  0.00  0.00    -0.204 OA
ATOM      4  O   UNL d   1      19.880  -6.722  60.140  0.00  0.00    -0.204 OA
BRANCH   2   5
ATOM      5  C   UNL d   1      19.916  -6.220  57.460  0.00  0.00     0.183 A 
ATOM      6  C   UNL d   1      21.269  -6.398  57.282  0.00  0.00     0.136 A 
ATOM      7  N   UNL d   1      21.488  -6.518  55.962  0.00  0.00    -0.353 N 
ATOM      8  C   UNL d   1      22.769  -6.720  55.297  0.00  0.00     0.156 C 
ATOM      9  C   UNL d   1      20.284  -6.412  55.368  0.00  0.00     0.210 A 
ATOM     10  N   UNL d   1      19.293  -6.229  56.264  0.00  0.00    -0.229 NA
ENDBRANCH   2   5
ENDBRANCH   1   2
BRANCH   1  11
ATOM     11  C   UNL d   1      18.231  -3.514  58.648  0.00  0.00     0.147 C 
BRANCH  11  12
ATOM     12  C   UNL d   1      16.773  -3.229  58.945  0.00  0.00    -0.038 A 
ATOM     13  C   UNL d   1      16.307  -1.976  59.405  0.00  0.00    -0.054 A 
ATOM     14  C   UNL d   1      17.243  -0.814  59.618  0.00  0.00     0.049 C 
ATOM     15  C   UNL d   1      14.935  -1.802  59.669  0.00  0.00     0.019 A 
ATOM     16  C   UNL d   1      13.996  -2.847  59.491  0.00  0.00    -0.025 A 
ATOM     17  C   UNL d   1      14.499  -4.088  59.038  0.00  0.00     0.013 A 
ATOM     18  C   UNL d   1      15.856  -4.271  58.777  0.00  0.00     0.010 A 
BRANCH  16  19
ATOM     19  C   UNL d   1      12.518  -2.648  59.775  0.00  0.00    -0.025 A 
ATOM     20  C   UNL d   1      11.709  -3.706  60.267  0.00  0.00     0.012 A 
ATOM     21  C   UNL d   1      10.349  -3.521  60.525  0.00  0.00     0.002 A 
ATOM     22  C   UNL d   1       9.752  -2.285  60.307  0.00  0.00     0.023 A 
ATOM     23  C   UNL d   1      10.515  -1.220  59.829  0.00  0.00     0.060 A 
ATOM     24  C   UNL d   1      11.878  -1.399  59.563  0.00  0.00     0.035 A 
BRANCH  23  25
ATOM     25  S   UNL d   1       9.746   0.379  59.545  0.00  0.00     0.175 S 
ATOM     26  O   UNL d   1      10.487   1.031  58.367  0.00  0.00    -0.223 OA
ATOM     27  O   UNL d   1      10.222   1.320  60.662  0.00  0.00    -0.223 OA
BRANCH  25  28
ATOM     28  C   UNL d   1       7.959   0.641  59.303  0.00  0.00     0.141 C 
ATOM     29  C   UNL d   1       7.697   1.829  58.385  0.00  0.00     0.021 C 
ENDBRANCH  25  28
ENDBRANCH  23  25
ENDBRANCH  16  19
ENDBRANCH  11  12
ENDBRANCH   1  11
BRANCH   1  30
ATOM     30  C   UNL d   1      18.178  -4.310  61.025  0.00  0.00     0.108 C 
BRANCH  30  31
ATOM     31  C   UNL d   1      19.102  -3.651  62.058  0.00  0.00    -0.026 A 
ATOM     32  C   UNL d   1      18.706  -2.603  62.908  0.00  0.00    -0.013 A 
ATOM     33  C   UNL d   1      17.360  -1.970  63.018  0.00  0.00     0.057 C 
ATOM     34  S   UNL d   1      20.002  -2.136  63.872  0.00  0.00    -0.100 SA
ATOM     35  C   UNL d   1      21.088  -3.244  63.246  0.00  0.00    -0.020 A 
ATOM     36  C   UNL d   1      22.512  -3.390  63.666  0.00  0.00     0.056 C 
ATOM     37  C   UNL d   1      20.458  -3.999  62.268  0.00  0.00     0.024 A 
ENDBRANCH  30  31
BRANCH  30  38
ATOM     38  C   UNL d   1      17.630  -5.699  61.479  0.00  0.00     0.026 C 
BRANCH  38  39
ATOM     39  C   UNL d   1      16.589  -5.581  62.610  0.00  0.00     0.002 C 
BRANCH  39  40
ATOM     40  C   UNL d   1      15.237  -5.111  62.059  0.00  0.00    -0.004 C 
ATOM     41  C   UNL d   1      14.455  -6.273  61.456  0.00  0.00     0.005 C 
ENDBRANCH  39  40
ENDBRANCH  38  39
ENDBRANCH  30  38
ENDBRANCH   1  30
TORSDOF 12
ENDMDL
MODEL 4
REMARK VINA RESULT:   -10.437      2.176      4.994
REMARK INTER + INTRA:         -17.735
REMARK INTER:                 -17.593
REMARK INTRA:                  -0.143
REMARK UNBOUND:                 0.023
REMARK  12 active torsions:
REMARK  status: ('A' for Active; 'I' for Inactive)
REMARK    1  A    between atoms: C_3  and  C_2 
REMARK    2  A    between atoms: C_4  and  C_3 
REMARK    3  A    between atoms: C_5  and  C_4 
REMARK    4  A    between atoms: C_5  and  C_7 
REMARK    5  A    between atoms: C_5  and  N_6 
REMARK    6  A    between atoms: S_8  and  N_6 
REMARK    7  A    between atoms: N_6  and  C_9 
REMARK    8  A    between atoms: S_8  and  C_12 
REMARK    9  A    between atoms: C_9  and  C_20 
REMARK   10  A    between atoms: C_30  and  C_31 
REMARK   11  A    between atoms: C_35  and  S_37 
REMARK   12  A    between atoms: S_37  and  C_38 
ROOT
ATOM      1  N   UNL d   1      17.436  -4.250  59.935  0.00  0.00    -0.192 NA
ENDROOT
BRANCH   1   2
ATOM      2  S   UNL d   1      18.842  -4.928  60.815  0.00  0.00     0.263 S 
ATOM      3  O   UNL d   1      19.836  -5.465  59.776  0.00  0.00    -0.204 OA
ATOM      4  O   UNL d   1      18.295  -6.243  61.392  0.00  0.00    -0.204 OA
BRANCH   2   5
ATOM      5  C   UNL d   1      19.614  -3.969  62.116  0.00  0.00     0.183 A 
ATOM      6  C   UNL d   1      18.971  -3.081  62.948  0.00  0.00     0.136 A 
ATOM      7  N   UNL d   1      19.894  -2.569  63.780  0.00  0.00    -0.353 N 
ATOM      8  C   UNL d   1      19.681  -1.587  64.835  0.00  0.00     0.156 C 
ATOM      9  C   UNL d   1      21.065  -3.144  63.444  0.00  0.00     0.210 A 
ATOM     10  N   UNL d   1      20.926  -4.013  62.423  0.00  0.00    -0.229 NA
ENDBRANCH   2   5
ENDBRANCH   1   2
BRANCH   1  11
ATOM     11  C   UNL d   1      16.811  -3.204  60.779  0.00  0.00     0.147 C 
BRANCH  11  12
ATOM     12  C   UNL d   1      15.325  -3.070  60.513  0.00  0.00    -0.038 A 
ATOM     13  C   UNL d   1      14.389  -4.083  60.821  0.00  0.00    -0.054 A 
ATOM     14  C   UNL d   1      14.810  -5.381  61.462  0.00  0.00     0.049 C 
ATOM     15  C   UNL d   1      13.027  -3.880  60.529  0.00  0.00     0.019 A 
ATOM     16  C   UNL d   1      12.557  -2.686  59.928  0.00  0.00    -0.025 A 
ATOM     17  C   UNL d   1      13.522  -1.700  59.626  0.00  0.00     0.013 A 
ATOM     18  C   UNL d   1      14.873  -1.892  59.910  0.00  0.00     0.010 A 
BRANCH  16  19
ATOM     19  C   UNL d   1      11.085  -2.476  59.618  0.00  0.00    -0.025 A 
ATOM     20  C   UNL d   1      10.195  -3.572  59.468  0.00  0.00     0.012 A 
ATOM     21  C   UNL d   1       8.843  -3.375  59.181  0.00  0.00     0.002 A 
ATOM     22  C   UNL d   1       8.333  -2.090  59.036  0.00  0.00     0.023 A 
ATOM     23  C   UNL d   1       9.174  -0.988  59.180  0.00  0.00     0.060 A 
ATOM     24  C   UNL d   1      10.533  -1.177  59.464  0.00  0.00     0.035 A 
BRANCH  23  25
ATOM     25  S   UNL d   1       8.519   0.674  58.993  0.00  0.00     0.175 S 
ATOM     26  O   UNL d   1       9.163   1.538  60.088  0.00  0.00    -0.223 OA
ATOM     27  O   UNL d   1       7.079   0.661  59.529  0.00  0.00    -0.223 OA
BRANCH  25  28
ATOM     28  C   UNL d   1       8.537   1.626  57.439  0.00  0.00     0.141 C 
ATOM     29  C   UNL d   1       7.361   2.593  57.372  0.00  0.00     0.021 C 
ENDBRANCH  25  28
ENDBRANCH  23  25
ENDBRANCH  16  19
ENDBRANCH  11  12
ENDBRANCH   1  11
BRANCH   1  30
ATOM     30  C   UNL d   1      17.730  -3.825  58.531  0.00  0.00     0.108 C 
BRANCH  30  31
ATOM     31  C   UNL d   1      18.206  -5.033  57.713  0.00  0.00    -0.026 A 
ATOM     32  C   UNL d   1      17.641  -6.318  57.812  0.00  0.00    -0.013 A 
ATOM     33  C   UNL d   1      16.489  -6.751  58.654  0.00  0.00     0.057 C 
ATOM     34  S   UNL d   1      18.449  -7.372  56.780  0.00  0.00    -0.100 SA
ATOM     35  C   UNL d   1      19.523  -6.235  56.183  0.00  0.00    -0.020 A 
ATOM     36  C   UNL d   1      20.588  -6.500  55.172  0.00  0.00     0.056 C 
ATOM     37  C   UNL d   1      19.271  -5.010  56.781  0.00  0.00     0.024 A 
ENDBRANCH  30  31
BRANCH  30  38
ATOM     38  C   UNL d   1      18.696  -2.603  58.453  0.00  0.00     0.026 C 
BRANCH  38  39
ATOM     39  C   UNL d   1      18.008  -1.342  57.893  0.00  0.00     0.002 C 
BRANCH  39  40
ATOM     40  C   UNL d   1      18.001  -0.216  58.934  0.00  0.00    -0.004 C 
ATOM     41  C   UNL d   1      18.693  -0.654  60.222  0.00  0.00     0.005 C 
ENDBRANCH  39  40
ENDBRANCH  38  39
ENDBRANCH  30  38
ENDBRANCH   1  30
TORSDOF 12
ENDMDL
MODEL 5
REMARK VINA RESULT:   -10.306      1.790      2.952
REMARK INTER + INTRA:         -17.513
REMARK INTER:                 -16.745
REMARK INTRA:                  -0.768
REMARK UNBOUND:                 0.023
REMARK  12 active torsions:
REMARK  status: ('A' for Active; 'I' for Inactive)
REMARK    1  A    between atoms: C_3  and  C_2 
REMARK    2  A    between atoms: C_4  and  C_3 
REMARK    3  A    between atoms: C_5  and  C_4 
REMARK    4  A    between atoms: C_5  and  C_7 
REMARK    5  A    between atoms: C_5  and  N_6 
REMARK    6  A    between atoms: S_8  and  N_6 
REMARK    7  A    between atoms: N_6  and  C_9 
REMARK    8  A    between atoms: S_8  and  C_12 
REMARK    9  A    between atoms: C_9  and  C_20 
REMARK   10  A    between atoms: C_30  and  C_31 
REMARK   11  A    between atoms: C_35  and  S_37 
REMARK   12  A    between atoms: S_37  and  C_38 
ROOT
ATOM      1  N   UNL d   1      17.635  -4.940  59.608  0.00  0.00    -0.192 NA
ENDROOT
BRANCH   1   2
ATOM      2  S   UNL d   1      19.134  -5.892  59.370  0.00  0.00     0.263 S 
ATOM      3  O   UNL d   1      18.954  -7.242  60.079  0.00  0.00    -0.204 OA
ATOM      4  O   UNL d   1      20.139  -5.209  60.309  0.00  0.00    -0.204 OA
BRANCH   2   5
ATOM      5  C   UNL d   1      19.836  -6.035  57.728  0.00  0.00     0.183 A 
ATOM      6  C   UNL d   1      21.121  -6.434  57.436  0.00  0.00     0.136 A 
ATOM      7  N   UNL d   1      21.256  -6.408  56.100  0.00  0.00    -0.353 N 
ATOM      8  C   UNL d   1      22.444  -6.751  55.328  0.00  0.00     0.156 C 
ATOM      9  C   UNL d   1      20.071  -5.998  55.608  0.00  0.00     0.210 A 
ATOM     10  N   UNL d   1      19.174  -5.761  56.586  0.00  0.00    -0.229 NA
ENDBRANCH   2   5
ENDBRANCH   1   2
BRANCH   1  11
ATOM     11  C   UNL d   1      16.533  -5.872  59.950  0.00  0.00     0.147 C 
BRANCH  11  12
ATOM     12  C   UNL d   1      15.199  -5.163  60.053  0.00  0.00    -0.038 A 
ATOM     13  C   UNL d   1      14.387  -5.205  61.210  0.00  0.00    -0.054 A 
ATOM     14  C   UNL d   1      14.810  -5.957  62.446  0.00  0.00     0.049 C 
ATOM     15  C   UNL d   1      13.153  -4.526  61.215  0.00  0.00     0.019 A 
ATOM     16  C   UNL d   1      12.690  -3.798  60.092  0.00  0.00    -0.025 A 
ATOM     17  C   UNL d   1      13.524  -3.785  58.951  0.00  0.00     0.013 A 
ATOM     18  C   UNL d   1      14.746  -4.456  58.935  0.00  0.00     0.010 A 
BRANCH  16  19
ATOM     19  C   UNL d   1      11.359  -3.068  60.108  0.00  0.00    -0.025 A 
ATOM     20  C   UNL d   1      10.164  -3.715  60.516  0.00  0.00     0.012 A 
ATOM     21  C   UNL d   1       8.940  -3.042  60.527  0.00  0.00     0.002 A 
ATOM     22  C   UNL d   1       8.866  -1.709  60.139  0.00  0.00     0.023 A 
ATOM     23  C   UNL d   1      10.019  -1.037  59.737  0.00  0.00     0.060 A 
ATOM     24  C   UNL d   1      11.249  -1.708  59.718  0.00  0.00     0.035 A 
BRANCH  23  25
ATOM     25  S   UNL d   1       9.927   0.685  59.234  0.00  0.00     0.175 S 
ATOM     26  O   UNL d   1      11.106   0.940  58.282  0.00  0.00    -0.223 OA
ATOM     27  O   UNL d   1      10.405   1.535  60.421  0.00  0.00    -0.223 OA
BRANCH  25  28
ATOM     28  C   UNL d   1       8.447   1.479  58.526  0.00  0.00     0.141 C 
ATOM     29  C   UNL d   1       8.695   1.921  57.089  0.00  0.00     0.021 C 
ENDBRANCH  25  28
ENDBRANCH  23  25
ENDBRANCH  16  19
ENDBRANCH  11  12
ENDBRANCH   1  11
BRANCH   1  30
ATOM     30  C   UNL d   1      17.780  -3.778  60.539  0.00  0.00     0.108 C 
BRANCH  30  31
ATOM     31  C   UNL d   1      18.135  -2.516  59.741  0.00  0.00    -0.026 A 
ATOM     32  C   UNL d   1      17.213  -1.500  59.431  0.00  0.00    -0.013 A 
ATOM     33  C   UNL d   1      15.778  -1.411  59.828  0.00  0.00     0.057 C 
ATOM     34  S   UNL d   1      17.972  -0.303  58.526  0.00  0.00    -0.100 SA
ATOM     35  C   UNL d   1      19.479  -1.033  58.509  0.00  0.00    -0.020 A 
ATOM     36  C   UNL d   1      20.695  -0.488  57.839  0.00  0.00     0.056 C 
ATOM     37  C   UNL d   1      19.415  -2.228  59.209  0.00  0.00     0.024 A 
ENDBRANCH  30  31
BRANCH  30  38
ATOM     38  C   UNL d   1      18.759  -4.061  61.720  0.00  0.00     0.026 C 
BRANCH  38  39
ATOM     39  C   UNL d   1      19.002  -2.816  62.596  0.00  0.00     0.002 C 
BRANCH  39  40
ATOM     40  C   UNL d   1      20.360  -2.905  63.304  0.00  0.00    -0.004 C 
ATOM     41  C   UNL d   1      20.309  -2.242  64.677  0.00  0.00     0.005 C 
ENDBRANCH  39  40
ENDBRANCH  38  39
ENDBRANCH  30  38
ENDBRANCH   1  30
TORSDOF 12
ENDMDL
MODEL 6
REMARK VINA RESULT:   -10.003      1.993      4.408
REMARK INTER + INTRA:         -16.996
REMARK INTER:                 -16.356
REMARK INTRA:                  -0.641
REMARK UNBOUND:                 0.023
REMARK  12 active torsions:
REMARK  status: ('A' for Active; 'I' for Inactive)
REMARK    1  A    between atoms: C_3  and  C_2 
REMARK    2  A    between atoms: C_4  and  C_3 
REMARK    3  A    between atoms: C_5  and  C_4 
REMARK    4  A    between atoms: C_5  and  C_7 
REMARK    5  A    between atoms: C_5  and  N_6 
REMARK    6  A    between atoms: S_8  and  N_6 
REMARK    7  A    between atoms: N_6  and  C_9 
REMARK    8  A    between atoms: S_8  and  C_12 
REMARK    9  A    between atoms: C_9  and  C_20 
REMARK   10  A    between atoms: C_30  and  C_31 
REMARK   11  A    between atoms: C_35  and  S_37 
REMARK   12  A    between atoms: S_37  and  C_38 
ROOT
ATOM      1  N   UNL d   1      17.220  -3.585  60.499  0.00  0.00    -0.192 NA
ENDROOT
BRANCH   1   2
ATOM      2  S   UNL d   1      17.670  -2.196  61.539  0.00  0.00     0.263 S 
ATOM      3  O   UNL d   1      16.380  -1.607  62.125  0.00  0.00    -0.204 OA
ATOM      4  O   UNL d   1      18.047  -1.105  60.526  0.00  0.00    -0.204 OA
BRANCH   2   5
ATOM      5  C   UNL d   1      18.983  -2.386  62.744  0.00  0.00     0.183 A 
ATOM      6  C   UNL d   1      20.140  -3.110  62.563  0.00  0.00     0.136 A 
ATOM      7  N   UNL d   1      20.859  -3.005  63.693  0.00  0.00    -0.353 N 
ATOM      8  C   UNL d   1      22.159  -3.605  63.968  0.00  0.00     0.156 C 
ATOM      9  C   UNL d   1      20.139  -2.234  64.530  0.00  0.00     0.210 A 
ATOM     10  N   UNL d   1      18.977  -1.835  63.974  0.00  0.00    -0.229 NA
ENDBRANCH   2   5
ENDBRANCH   1   2
BRANCH   1  11
ATOM     11  C   UNL d   1      16.581  -3.063  59.267  0.00  0.00     0.147 C 
BRANCH  11  12
ATOM     12  C   UNL d   1      15.090  -2.856  59.442  0.00  0.00    -0.038 A 
ATOM     13  C   UNL d   1      14.203  -3.894  59.809  0.00  0.00    -0.054 A 
ATOM     14  C   UNL d   1      14.691  -5.296  60.071  0.00  0.00     0.049 C 
ATOM     15  C   UNL d   1      12.829  -3.617  59.937  0.00  0.00     0.019 A 
ATOM     16  C   UNL d   1      12.297  -2.324  59.708  0.00  0.00    -0.025 A 
ATOM     17  C   UNL d   1      13.212  -1.314  59.335  0.00  0.00     0.013 A 
ATOM     18  C   UNL d   1      14.575  -1.579  59.202  0.00  0.00     0.010 A 
BRANCH  16  19
ATOM     19  C   UNL d   1      10.814  -2.034  59.851  0.00  0.00    -0.025 A 
ATOM     20  C   UNL d   1       9.939  -2.950  60.493  0.00  0.00     0.012 A 
ATOM     21  C   UNL d   1       8.574  -2.682  60.621  0.00  0.00     0.002 A 
ATOM     22  C   UNL d   1       8.038  -1.502  60.121  0.00  0.00     0.023 A 
ATOM     23  C   UNL d   1       8.865  -0.576  59.488  0.00  0.00     0.060 A 
ATOM     24  C   UNL d   1      10.234  -0.839  59.351  0.00  0.00     0.035 A 
BRANCH  23  25
ATOM     25  S   UNL d   1       8.175   0.951  58.839  0.00  0.00     0.175 S 
ATOM     26  O   UNL d   1       8.754   2.100  59.680  0.00  0.00    -0.223 OA
ATOM     27  O   UNL d   1       6.716   1.032  59.316  0.00  0.00    -0.223 OA
BRANCH  25  28
ATOM     28  C   UNL d   1       8.228   1.450  57.088  0.00  0.00     0.141 C 
ATOM     29  C   UNL d   1       7.384   2.694  56.844  0.00  0.00     0.021 C 
ENDBRANCH  25  28
ENDBRANCH  23  25
ENDBRANCH  16  19
ENDBRANCH  11  12
ENDBRANCH   1  11
BRANCH   1  30
ATOM     30  C   UNL d   1      18.324  -4.566  60.262  0.00  0.00     0.108 C 
BRANCH  30  31
ATOM     31  C   UNL d   1      18.519  -4.771  58.754  0.00  0.00    -0.026 A 
ATOM     32  C   UNL d   1      19.115  -3.821  57.905  0.00  0.00    -0.013 A 
ATOM     33  C   UNL d   1      19.697  -2.498  58.274  0.00  0.00     0.057 C 
ATOM     34  S   UNL d   1      19.124  -4.400  56.326  0.00  0.00    -0.100 SA
ATOM     35  C   UNL d   1      18.384  -5.860  56.676  0.00  0.00    -0.020 A 
ATOM     36  C   UNL d   1      18.059  -6.923  55.682  0.00  0.00     0.056 C 
ATOM     37  C   UNL d   1      18.114  -5.921  58.034  0.00  0.00     0.024 A 
ENDBRANCH  30  31
BRANCH  30  38
ATOM     38  C   UNL d   1      18.135  -5.899  61.051  0.00  0.00     0.026 C 
BRANCH  38  39
ATOM     39  C   UNL d   1      19.398  -6.783  61.025  0.00  0.00     0.002 C 
BRANCH  39  40
ATOM     40  C   UNL d   1      19.046  -8.224  60.638  0.00  0.00    -0.004 C 
ATOM     41  C   UNL d   1      19.596  -8.573  59.258  0.00  0.00     0.005 C 
ENDBRANCH  39  40
ENDBRANCH  38  39
ENDBRANCH  30  38
ENDBRANCH   1  30
TORSDOF 12
ENDMDL
MODEL 7
REMARK VINA RESULT:    -9.654      2.182      4.073
REMARK INTER + INTRA:         -16.403
REMARK INTER:                 -16.770
REMARK INTRA:                   0.367
REMARK UNBOUND:                 0.023
REMARK  12 active torsions:
REMARK  status: ('A' for Active; 'I' for Inactive)
REMARK    1  A    between atoms: C_3  and  C_2 
REMARK    2  A    between atoms: C_4  and  C_3 
REMARK    3  A    between atoms: C_5  and  C_4 
REMARK    4  A    between atoms: C_5  and  C_7 
REMARK    5  A    between atoms: C_5  and  N_6 
REMARK    6  A    between atoms: S_8  and  N_6 
REMARK    7  A    between atoms: N_6  and  C_9 
REMARK    8  A    between atoms: S_8  and  C_12 
REMARK    9  A    between atoms: C_9  and  C_20 
REMARK   10  A    between atoms: C_30  and  C_31 
REMARK   11  A    between atoms: C_35  and  S_37 
REMARK   12  A    between atoms: S_37  and  C_38 
ROOT
ATOM      1  N   UNL d   1      17.646  -3.721  60.680  0.00  0.00    -0.192 NA
ENDROOT
BRANCH   1   2
ATOM      2  S   UNL d   1      17.670  -1.931  60.604  0.00  0.00     0.263 S 
ATOM      3  O   UNL d   1      18.083  -1.405  61.986  0.00  0.00    -0.204 OA
ATOM      4  O   UNL d   1      16.180  -1.559  60.591  0.00  0.00    -0.204 OA
BRANCH   2   5
ATOM      5  C   UNL d   1      18.512  -1.117  59.248  0.00  0.00     0.183 A 
ATOM      6  C   UNL d   1      19.874  -1.093  59.047  0.00  0.00     0.136 A 
ATOM      7  N   UNL d   1      20.102  -0.383  57.929  0.00  0.00    -0.353 N 
ATOM      8  C   UNL d   1      21.393  -0.089  57.321  0.00  0.00     0.156 C 
ATOM      9  C   UNL d   1      18.895   0.007  57.476  0.00  0.00     0.210 A 
ATOM     10  N   UNL d   1      17.894  -0.430  58.267  0.00  0.00    -0.229 NA
ENDBRANCH   2   5
ENDBRANCH   1   2
BRANCH   1  11
ATOM     11  C   UNL d   1      16.825  -4.230  59.554  0.00  0.00     0.147 C 
BRANCH  11  12
ATOM     12  C   UNL d   1      15.357  -3.900  59.726  0.00  0.00    -0.038 A 
ATOM     13  C   UNL d   1      14.526  -4.537  60.676  0.00  0.00    -0.054 A 
ATOM     14  C   UNL d   1      15.060  -5.593  61.610  0.00  0.00     0.049 C 
ATOM     15  C   UNL d   1      13.168  -4.178  60.760  0.00  0.00     0.019 A 
ATOM     16  C   UNL d   1      12.596  -3.193  59.917  0.00  0.00    -0.025 A 
ATOM     17  C   UNL d   1      13.454  -2.584  58.974  0.00  0.00     0.013 A 
ATOM     18  C   UNL d   1      14.800  -2.935  58.881  0.00  0.00     0.010 A 
BRANCH  16  19
ATOM     19  C   UNL d   1      11.130  -2.811  60.017  0.00  0.00    -0.025 A 
ATOM     20  C   UNL d   1      10.155  -3.732  60.483  0.00  0.00     0.012 A 
ATOM     21  C   UNL d   1       8.807  -3.378  60.571  0.00  0.00     0.002 A 
ATOM     22  C   UNL d   1       8.386  -2.105  60.205  0.00  0.00     0.023 A 
ATOM     23  C   UNL d   1       9.315  -1.172  59.747  0.00  0.00     0.060 A 
ATOM     24  C   UNL d   1      10.669  -1.520  59.651  0.00  0.00     0.035 A 
BRANCH  23  25
ATOM     25  S   UNL d   1       8.775   0.475  59.271  0.00  0.00     0.175 S 
ATOM     26  O   UNL d   1       9.485   1.468  60.204  0.00  0.00    -0.223 OA
ATOM     27  O   UNL d   1       7.342   0.654  59.793  0.00  0.00    -0.223 OA
BRANCH  25  28
ATOM     28  C   UNL d   1       8.850   1.140  57.576  0.00  0.00     0.141 C 
ATOM     29  C   UNL d   1       7.889   2.309  57.402  0.00  0.00     0.021 C 
ENDBRANCH  25  28
ENDBRANCH  23  25
ENDBRANCH  16  19
ENDBRANCH  11  12
ENDBRANCH   1  11
BRANCH   1  30
ATOM     30  C   UNL d   1      18.996  -4.355  60.804  0.00  0.00     0.108 C 
BRANCH  30  31
ATOM     31  C   UNL d   1      19.057  -5.617  59.932  0.00  0.00    -0.026 A 
ATOM     32  C   UNL d   1      19.320  -5.603  58.551  0.00  0.00    -0.013 A 
ATOM     33  C   UNL d   1      19.626  -4.426  57.687  0.00  0.00     0.057 C 
ATOM     34  S   UNL d   1      19.278  -7.173  57.951  0.00  0.00    -0.100 SA
ATOM     35  C   UNL d   1      18.932  -7.906  59.416  0.00  0.00    -0.020 A 
ATOM     36  C   UNL d   1      18.744  -9.370  59.626  0.00  0.00     0.056 C 
ATOM     37  C   UNL d   1      18.842  -6.935  60.402  0.00  0.00     0.024 A 
ENDBRANCH  30  31
BRANCH  30  38
ATOM     38  C   UNL d   1      19.420  -4.601  62.285  0.00  0.00     0.026 C 
BRANCH  38  39
ATOM     39  C   UNL d   1      20.639  -3.753  62.697  0.00  0.00     0.002 C 
BRANCH  39  40
ATOM     40  C   UNL d   1      20.273  -2.788  63.831  0.00  0.00    -0.004 C 
ATOM     41  C   UNL d   1      21.413  -2.664  64.838  0.00  0.00     0.005 C 
ENDBRANCH  39  40
ENDBRANCH  38  39
ENDBRANCH  30  38
ENDBRANCH   1  30
TORSDOF 12
ENDMDL
MODEL 8
REMARK VINA RESULT:    -9.338      2.119      3.996
REMARK INTER + INTRA:         -15.865
REMARK INTER:                 -15.175
REMARK INTRA:                  -0.690
REMARK UNBOUND:                 0.023
REMARK  12 active torsions:
REMARK  status: ('A' for Active; 'I' for Inactive)
REMARK    1  A    between atoms: C_3  and  C_2 
REMARK    2  A    between atoms: C_4  and  C_3 
REMARK    3  A    between atoms: C_5  and  C_4 
REMARK    4  A    between atoms: C_5  and  C_7 
REMARK    5  A    between atoms: C_5  and  N_6 
REMARK    6  A    between atoms: S_8  and  N_6 
REMARK    7  A    between atoms: N_6  and  C_9 
REMARK    8  A    between atoms: S_8  and  C_12 
REMARK    9  A    between atoms: C_9  and  C_20 
REMARK   10  A    between atoms: C_30  and  C_31 
REMARK   11  A    between atoms: C_35  and  S_37 
REMARK   12  A    between atoms: S_37  and  C_38 
ROOT
ATOM      1  N   UNL d   1      17.271  -4.537  60.067  0.00  0.00    -0.192 NA
ENDROOT
BRANCH   1   2
ATOM      2  S   UNL d   1      17.118  -6.308  60.293  0.00  0.00     0.263 S 
ATOM      3  O   UNL d   1      15.665  -6.611  60.685  0.00  0.00    -0.204 OA
ATOM      4  O   UNL d   1      17.831  -6.555  61.632  0.00  0.00    -0.204 OA
BRANCH   2   5
ATOM      5  C   UNL d   1      17.769  -7.417  59.045  0.00  0.00     0.183 A 
ATOM      6  C   UNL d   1      17.421  -7.418  57.713  0.00  0.00     0.136 A 
ATOM      7  N   UNL d   1      18.125  -8.395  57.116  0.00  0.00    -0.353 N 
ATOM      8  C   UNL d   1      18.088  -8.772  55.708  0.00  0.00     0.156 C 
ATOM      9  C   UNL d   1      18.875  -8.963  58.079  0.00  0.00     0.210 A 
ATOM     10  N   UNL d   1      18.680  -8.382  59.280  0.00  0.00    -0.229 NA
ENDBRANCH   2   5
ENDBRANCH   1   2
BRANCH   1  11
ATOM     11  C   UNL d   1      16.520  -3.857  61.149  0.00  0.00     0.147 C 
BRANCH  11  12
ATOM     12  C   UNL d   1      15.117  -3.480  60.720  0.00  0.00    -0.038 A 
ATOM     13  C   UNL d   1      14.820  -2.307  59.989  0.00  0.00    -0.054 A 
ATOM     14  C   UNL d   1      15.901  -1.344  59.566  0.00  0.00     0.049 C 
ATOM     15  C   UNL d   1      13.486  -2.027  59.641  0.00  0.00     0.019 A 
ATOM     16  C   UNL d   1      12.418  -2.885  60.002  0.00  0.00    -0.025 A 
ATOM     17  C   UNL d   1      12.751  -4.043  60.739  0.00  0.00     0.013 A 
ATOM     18  C   UNL d   1      14.070  -4.328  61.091  0.00  0.00     0.010 A 
BRANCH  16  19
ATOM     19  C   UNL d   1      10.982  -2.575  59.620  0.00  0.00    -0.025 A 
ATOM     20  C   UNL d   1      10.035  -3.609  59.399  0.00  0.00     0.012 A 
ATOM     21  C   UNL d   1       8.715  -3.322  59.044  0.00  0.00     0.002 A 
ATOM     22  C   UNL d   1       8.294  -2.004  58.901  0.00  0.00     0.023 A 
ATOM     23  C   UNL d   1       9.194  -0.961  59.114  0.00  0.00     0.060 A 
ATOM     24  C   UNL d   1      10.521  -1.242  59.465  0.00  0.00     0.035 A 
BRANCH  23  25
ATOM     25  S   UNL d   1       8.655   0.743  58.929  0.00  0.00     0.175 S 
ATOM     26  O   UNL d   1       9.405   1.570  59.984  0.00  0.00    -0.223 OA
ATOM     27  O   UNL d   1       7.242   0.842  59.523  0.00  0.00    -0.223 OA
BRANCH  25  28
ATOM     28  C   UNL d   1       8.678   1.672  57.362  0.00  0.00     0.141 C 
ATOM     29  C   UNL d   1       7.472   2.597  57.252  0.00  0.00     0.021 C 
ENDBRANCH  25  28
ENDBRANCH  23  25
ENDBRANCH  16  19
ENDBRANCH  11  12
ENDBRANCH   1  11
BRANCH   1  30
ATOM     30  C   UNL d   1      18.675  -4.055  59.883  0.00  0.00     0.108 C 
BRANCH  30  31
ATOM     31  C   UNL d   1      19.226  -4.563  58.543  0.00  0.00    -0.026 A 
ATOM     32  C   UNL d   1      18.761  -4.128  57.289  0.00  0.00    -0.013 A 
ATOM     33  C   UNL d   1      17.720  -3.099  57.003  0.00  0.00     0.057 C 
ATOM     34  S   UNL d   1      19.591  -4.933  56.068  0.00  0.00    -0.100 SA
ATOM     35  C   UNL d   1      20.557  -5.842  57.089  0.00  0.00    -0.020 A 
ATOM     36  C   UNL d   1      21.584  -6.832  56.652  0.00  0.00     0.056 C 
ATOM     37  C   UNL d   1      20.247  -5.535  58.405  0.00  0.00     0.024 A 
ENDBRANCH  30  31
BRANCH  30  38
ATOM     38  C   UNL d   1      19.597  -4.382  61.098  0.00  0.00     0.026 C 
BRANCH  38  39
ATOM     39  C   UNL d   1      19.963  -3.127  61.915  0.00  0.00     0.002 C 
BRANCH  39  40
ATOM     40  C   UNL d   1      19.279  -1.882  61.337  0.00  0.00    -0.004 C 
ATOM     41  C   UNL d   1      18.441  -1.172  62.396  0.00  0.00     0.005 C 
ENDBRANCH  39  40
ENDBRANCH  38  39
ENDBRANCH  30  38
ENDBRANCH   1  30
TORSDOF 12
ENDMDL
MODEL 9
REMARK VINA RESULT:    -9.257      2.510      5.147
REMARK INTER + INTRA:         -15.727
REMARK INTER:                 -15.750
REMARK INTRA:                   0.023
REMARK UNBOUND:                 0.023
REMARK  12 active torsions:
REMARK  status: ('A' for Active; 'I' for Inactive)
REMARK    1  A    between atoms: C_3  and  C_2 
REMARK    2  A    between atoms: C_4  and  C_3 
REMARK    3  A    between atoms: C_5  and  C_4 
REMARK    4  A    between atoms: C_5  and  C_7 
REMARK    5  A    between atoms: C_5  and  N_6 
REMARK    6  A    between atoms: S_8  and  N_6 
REMARK    7  A    between atoms: N_6  and  C_9 
REMARK    8  A    between atoms: S_8  and  C_12 
REMARK    9  A    between atoms: C_9  and  C_20 
REMARK   10  A    between atoms: C_30  and  C_31 
REMARK   11  A    between atoms: C_35  and  S_37 
REMARK   12  A    between atoms: S_37  and  C_38 
ROOT
ATOM      1  N   UNL d   1      18.053  -4.795  60.250  0.00  0.00    -0.192 NA
ENDROOT
BRANCH   1   2
ATOM      2  S   UNL d   1      17.966  -3.899  61.799  0.00  0.00     0.263 S 
ATOM      3  O   UNL d   1      16.907  -4.577  62.679  0.00  0.00    -0.204 OA
ATOM      4  O   UNL d   1      17.232  -2.604  61.417  0.00  0.00    -0.204 OA
BRANCH   2   5
ATOM      5  C   UNL d   1      19.478  -3.504  62.675  0.00  0.00     0.183 A 
ATOM      6  C   UNL d   1      19.619  -2.525  63.633  0.00  0.00     0.136 A 
ATOM      7  N   UNL d   1      20.898  -2.545  64.042  0.00  0.00    -0.353 N 
ATOM      8  C   UNL d   1      21.514  -1.687  65.047  0.00  0.00     0.156 C 
ATOM      9  C   UNL d   1      21.505  -3.519  63.338  0.00  0.00     0.210 A 
ATOM     10  N   UNL d   1      20.657  -4.130  62.487  0.00  0.00    -0.229 NA
ENDBRANCH   2   5
ENDBRANCH   1   2
BRANCH   1  11
ATOM     11  C   UNL d   1      16.755  -5.477  60.027  0.00  0.00     0.147 C 
BRANCH  11  12
ATOM     12  C   UNL d   1      15.601  -4.499  59.958  0.00  0.00    -0.038 A 
ATOM     13  C   UNL d   1      14.387  -4.684  60.658  0.00  0.00    -0.054 A 
ATOM     14  C   UNL d   1      14.161  -5.879  61.547  0.00  0.00     0.049 C 
ATOM     15  C   UNL d   1      13.360  -3.730  60.527  0.00  0.00     0.019 A 
ATOM     16  C   UNL d   1      13.500  -2.581  59.711  0.00  0.00    -0.025 A 
ATOM     17  C   UNL d   1      14.724  -2.433  59.020  0.00  0.00     0.013 A 
ATOM     18  C   UNL d   1      15.745  -3.374  59.140  0.00  0.00     0.010 A 
BRANCH  16  19
ATOM     19  C   UNL d   1      12.387  -1.556  59.579  0.00  0.00    -0.025 A 
ATOM     20  C   UNL d   1      12.654  -0.221  59.177  0.00  0.00     0.012 A 
ATOM     21  C   UNL d   1      11.629   0.721  59.060  0.00  0.00     0.002 A 
ATOM     22  C   UNL d   1      10.313   0.367  59.333  0.00  0.00     0.023 A 
ATOM     23  C   UNL d   1      10.010  -0.936  59.726  0.00  0.00     0.060 A 
ATOM     24  C   UNL d   1      11.034  -1.884  59.851  0.00  0.00     0.035 A 
BRANCH  23  25
ATOM     25  S   UNL d   1       8.310  -1.396  60.081  0.00  0.00     0.175 S 
ATOM     26  O   UNL d   1       8.342  -2.321  61.308  0.00  0.00    -0.223 OA
ATOM     27  O   UNL d   1       7.887  -2.429  59.027  0.00  0.00    -0.223 OA
BRANCH  25  28
ATOM     28  C   UNL d   1       6.941  -0.213  60.300  0.00  0.00     0.141 C 
ATOM     29  C   UNL d   1       6.274  -0.390  61.658  0.00  0.00     0.021 C 
ENDBRANCH  25  28
ENDBRANCH  23  25
ENDBRANCH  16  19
ENDBRANCH  11  12
ENDBRANCH   1  11
BRANCH   1  30
ATOM     30  C   UNL d   1      18.538  -3.984  59.090  0.00  0.00     0.108 C 
BRANCH  30  31
ATOM     31  C   UNL d   1      19.256  -4.895  58.085  0.00  0.00    -0.026 A 
ATOM     32  C   UNL d   1      19.072  -4.824  56.693  0.00  0.00    -0.013 A 
ATOM     33  C   UNL d   1      18.219  -3.869  55.928  0.00  0.00     0.057 C 
ATOM     34  S   UNL d   1      20.009  -5.998  55.937  0.00  0.00    -0.100 SA
ATOM     35  C   UNL d   1      20.671  -6.618  57.344  0.00  0.00    -0.020 A 
ATOM     36  C   UNL d   1      21.641  -7.749  57.416  0.00  0.00     0.056 C 
ATOM     37  C   UNL d   1      20.170  -5.920  58.431  0.00  0.00     0.024 A 
ENDBRANCH  30  31
BRANCH  30  38
ATOM     38  C   UNL d   1      19.385  -2.747  59.523  0.00  0.00     0.026 C 
BRANCH  38  39
ATOM     39  C   UNL d   1      19.468  -1.674  58.420  0.00  0.00     0.002 C 
BRANCH  39  40
ATOM     40  C   UNL d   1      18.090  -1.053  58.160  0.00  0.00    -0.004 C 
ATOM     41  C   UNL d   1      17.699  -0.094  59.280  0.00  0.00     0.005 C 
ENDBRANCH  39  40
ENDBRANCH  38  39
ENDBRANCH  30  38
ENDBRANCH   1  30
TORSDOF 12
ENDMDL
