/content/1PQ6_Docking/DOCKING/CLC-0000191/CLC-0000191_output.pdbqt
 OpenBabel03072503353D

 41 44  0  0  1  0  0  0  0  0999 V2000
   17.6050   -4.4210   59.7930 N   0  0  0  0  0  0  0  0  0  0  0  0
   18.6070   -3.8600   58.4180 S   0  0  0  0  0  0  0  0  0  0  0  0
   19.6780   -2.9070   58.9710 O   0  0  0  0  0  0  0  0  0  0  0  0
   17.6870   -2.8640   57.6950 O   0  0  0  0  0  0  0  0  0  0  0  0
   19.2480   -5.0550   57.2470 C   0  0  0  0  0  0  0  0  0  0  0  0
   20.5790   -5.2690   56.9660 C   0  0  0  0  0  3  0  0  0  0  0  0
   20.6420   -6.2410   56.0400 N   0  0  0  0  0  0  0  0  0  0  0  0
   21.8430   -6.8040   55.4360 C   0  0  0  0  0  1  0  0  0  0  0  0
   19.3700   -6.5940   55.7760 C   0  0  0  0  0  3  0  0  0  0  0  0
   18.4860   -5.8830   56.5050 N   0  0  0  0  0  0  0  0  0  0  0  0
   16.5100   -5.2690   59.2630 C   0  0  0  0  0  2  0  0  0  0  0  0
   15.1450   -4.6720   59.5360 C   0  0  0  0  0  0  0  0  0  0  0  0
   14.3680   -5.0020   60.6700 C   0  0  0  0  0  0  0  0  0  0  0  0
   14.8620   -5.9740   61.7110 C   0  0  0  0  0  1  0  0  0  0  0  0
   13.1030   -4.4090   60.8400 C   0  0  0  0  0  3  0  0  0  0  0  0
   12.5730   -3.4860   59.9040 C   0  0  0  0  0  0  0  0  0  0  0  0
   13.3730   -3.1870   58.7790 C   0  0  0  0  0  3  0  0  0  0  0  0
   14.6270   -3.7710   58.6000 C   0  0  0  0  0  3  0  0  0  0  0  0
   11.2080   -2.8500   60.0970 C   0  0  0  0  0  0  0  0  0  0  0  0
   10.1390   -3.5610   60.7020 C   0  0  0  0  0  3  0  0  0  0  0  0
    8.8830   -2.9740   60.8750 C   0  0  0  0  0  3  0  0  0  0  0  0
    8.6520   -1.6680   60.4590 C   0  0  0  0  0  3  0  0  0  0  0  0
    9.6790   -0.9360   59.8650 C   0  0  0  0  0  0  0  0  0  0  0  0
   10.9400   -1.5200   59.6830 C   0  0  0  0  0  3  0  0  0  0  0  0
    9.3830    0.7520   59.3240 S   0  0  0  0  0  0  0  0  0  0  0  0
   10.3860    1.0460   58.1980 O   0  0  0  0  0  0  0  0  0  0  0  0
    9.9660    1.6840   60.3970 O   0  0  0  0  0  0  0  0  0  0  0  0
    7.7600    1.4090   58.8210 C   0  0  0  0  0  2  0  0  0  0  0  0
    7.8660    2.2010   57.5240 C   0  0  0  0  0  1  0  0  0  0  0  0
   18.3810   -5.0340   60.9160 C   0  0  2  0  0  3  0  0  0  0  0  0
   18.8860   -3.9320   61.8570 C   0  0  0  0  0  0  0  0  0  0  0  0
   18.1760   -2.7500   62.1320 C   0  0  0  0  0  0  0  0  0  0  0  0
   16.8290   -2.3510   61.6300 C   0  0  0  0  0  1  0  0  0  0  0  0
   19.0660   -1.7870   63.1840 S   0  0  0  0  0  0  0  0  0  0  0  0
   20.3620   -2.8380   63.3230 C   0  0  0  0  0  0  0  0  0  0  0  0
   21.5830   -2.6000   64.1450 C   0  0  0  0  0  1  0  0  0  0  0  0
   20.1230   -3.9610   62.5460 C   0  0  0  0  0  3  0  0  0  0  0  0
   19.5070   -5.9970   60.4250 C   0  0  0  0  0  2  0  0  0  0  0  0
   19.0740   -7.4760   60.4620 C   0  0  0  0  0  2  0  0  0  0  0  0
   19.5740   -8.2210   59.2180 C   0  0  0  0  0  2  0  0  0  0  0  0
   18.4340   -8.9590   58.5240 C   0  0  0  0  0  1  0  0  0  0  0  0
  1 30  1  0  0  0  0
  2  3  2  0  0  0  0
  2  1  1  0  0  0  0
  4  2  2  0  0  0  0
  5  2  1  0  0  0  0
  6  5  2  0  0  0  0
  7  6  1  0  0  0  0
  8  7  1  0  0  0  0
  9  7  1  0  0  0  0
  9 10  2  0  0  0  0
 10  5  1  0  0  0  0
 11 12  1  0  0  0  0
 11  1  1  0  0  0  0
 12 13  1  0  0  0  0
 13 15  2  0  0  0  0
 13 14  1  0  0  0  0
 16 19  1  0  0  0  0
 16 15  1  0  0  0  0
 17 16  2  0  0  0  0
 18 17  1  0  0  0  0
 18 12  2  0  0  0  0
 19 20  1  0  0  0  0
 20 21  2  0  0  0  0
 22 21  1  0  0  0  0
 23 22  2  0  0  0  0
 24 23  1  0  0  0  0
 24 19  2  0  0  0  0
 25 23  1  0  0  0  0
 25 27  2  0  0  0  0
 26 25  2  0  0  0  0
 28 25  1  0  0  0  0
 29 28  1  0  0  0  0
 30 38  1  6  0  0  0
 30 31  1  0  0  0  0
 31 32  2  0  0  0  0
 31 37  1  0  0  0  0
 32 34  1  0  0  0  0
 33 32  1  0  0  0  0
 34 35  1  0  0  0  0
 35 36  1  0  0  0  0
 37 35  2  0  0  0  0
 38 39  1  0  0  0  0
 40 39  1  0  0  0  0
 41 40  1  0  0  0  0
M  END
>  <POSE>
1

>  <SCORE>
-11.566

>  <RMSD_LB_BP>
0.000

>  <RMSD_UB_BP>
0.000

$$$$
/content/1PQ6_Docking/DOCKING/CLC-0000191/CLC-0000191_output.pdbqt
 OpenBabel03072503353D

 41 44  0  0  1  0  0  0  0  0999 V2000
   17.5690   -4.1940   59.5130 N   0  0  0  0  0  0  0  0  0  0  0  0
   17.8640   -5.9290   59.1730 S   0  0  0  0  0  0  0  0  0  0  0  0
   16.5250   -6.5660   58.7730 O   0  0  0  0  0  0  0  0  0  0  0  0
   18.0610   -6.5330   60.5710 O   0  0  0  0  0  0  0  0  0  0  0  0
   19.2270   -6.4000   58.1100 C   0  0  0  0  0  0  0  0  0  0  0  0
   19.1960   -6.4350   56.7340 C   0  0  0  0  0  3  0  0  0  0  0  0
   20.4080   -6.8380   56.3160 N   0  0  0  0  0  0  0  0  0  0  0  0
   20.8470   -7.0250   54.9390 C   0  0  0  0  0  1  0  0  0  0  0  0
   21.1430   -7.0390   57.4260 C   0  0  0  0  0  3  0  0  0  0  0  0
   20.4440   -6.7770   58.5490 N   0  0  0  0  0  0  0  0  0  0  0  0
   16.8220   -4.0840   60.7890 C   0  0  0  0  0  2  0  0  0  0  0  0
   15.3540   -3.7830   60.5650 C   0  0  0  0  0  0  0  0  0  0  0  0
   14.3160   -4.6670   60.9400 C   0  0  0  0  0  0  0  0  0  0  0  0
   14.6050   -5.9830   61.6150 C   0  0  0  0  0  1  0  0  0  0  0  0
   12.9780   -4.3130   60.6830 C   0  0  0  0  0  3  0  0  0  0  0  0
   12.6300   -3.0930   60.0530 C   0  0  0  0  0  0  0  0  0  0  0  0
   13.6940   -2.2380   59.6850 C   0  0  0  0  0  3  0  0  0  0  0  0
   15.0220   -2.5810   59.9320 C   0  0  0  0  0  3  0  0  0  0  0  0
   11.1840   -2.7190   59.7830 C   0  0  0  0  0  0  0  0  0  0  0  0
   10.1660   -3.7050   59.7040 C   0  0  0  0  0  3  0  0  0  0  0  0
    8.8370   -3.3590   59.4520 C   0  0  0  0  0  3  0  0  0  0  0  0
    8.4770   -2.0280   59.2740 C   0  0  0  0  0  3  0  0  0  0  0  0
    9.4480   -1.0300   59.3470 C   0  0  0  0  0  0  0  0  0  0  0  0
   10.7840   -1.3700   59.5950 C   0  0  0  0  0  3  0  0  0  0  0  0
    8.9860    0.6910   59.1150 S   0  0  0  0  0  0  0  0  0  0  0  0
    9.7530    1.5080   60.1670 O   0  0  0  0  0  0  0  0  0  0  0  0
    7.5680    0.8640   59.6810 O   0  0  0  0  0  0  0  0  0  0  0  0
    9.0780    1.5830   57.5290 C   0  0  0  0  0  2  0  0  0  0  0  0
    7.7900    2.3470   57.2520 C   0  0  0  0  0  1  0  0  0  0  0  0
   18.7870   -3.3300   59.4270 C   0  0  2  0  0  3  0  0  0  0  0  0
   19.2610   -2.9610   60.8400 C   0  0  0  0  0  0  0  0  0  0  0  0
   18.8660   -1.7950   61.5200 C   0  0  0  0  0  0  0  0  0  0  0  0
   17.9150   -0.7430   61.0580 C   0  0  0  0  0  1  0  0  0  0  0  0
   19.6150   -1.7360   63.0240 S   0  0  0  0  0  0  0  0  0  0  0  0
   20.4480   -3.1770   62.8560 C   0  0  0  0  0  0  0  0  0  0  0  0
   21.3650   -3.7680   63.8740 C   0  0  0  0  0  1  0  0  0  0  0  0
   20.1580   -3.7310   61.6190 C   0  0  0  0  0  3  0  0  0  0  0  0
   18.5940   -2.0940   58.4950 C   0  0  0  0  0  2  0  0  0  0  0  0
   19.8840   -1.7170   57.7400 C   0  0  0  0  0  2  0  0  0  0  0  0
   20.4470   -0.3870   58.2550 C   0  0  0  0  0  2  0  0  0  0  0  0
   21.7170    0.0000   57.5030 C   0  0  0  0  0  1  0  0  0  0  0  0
  1 11  1  0  0  0  0
  2  1  1  0  0  0  0
  2  4  2  0  0  0  0
  3  2  2  0  0  0  0
  5 10  1  0  0  0  0
  5  2  1  0  0  0  0
  6  5  2  0  0  0  0
  7  6  1  0  0  0  0
  7  9  1  0  0  0  0
  8  7  1  0  0  0  0
  9 10  2  0  0  0  0
 12 11  1  0  0  0  0
 12 13  1  0  0  0  0
 13 14  1  0  0  0  0
 15 13  2  0  0  0  0
 16 15  1  0  0  0  0
 17 18  1  0  0  0  0
 17 16  2  0  0  0  0
 18 12  2  0  0  0  0
 19 16  1  0  0  0  0
 20 19  1  0  0  0  0
 21 20  2  0  0  0  0
 22 23  2  0  0  0  0
 22 21  1  0  0  0  0
 23 24  1  0  0  0  0
 24 19  2  0  0  0  0
 25 23  1  0  0  0  0
 25 27  2  0  0  0  0
 25 26  2  0  0  0  0
 28 25  1  0  0  0  0
 29 28  1  0  0  0  0
 30 38  1  6  0  0  0
 30  1  1  0  0  0  0
 30 31  1  0  0  0  0
 31 32  2  0  0  0  0
 31 37  1  0  0  0  0
 32 34  1  0  0  0  0
 33 32  1  0  0  0  0
 35 34  1  0  0  0  0
 35 36  1  0  0  0  0
 37 35  2  0  0  0  0
 39 40  1  0  0  0  0
 39 38  1  0  0  0  0
 41 40  1  0  0  0  0
M  END
>  <POSE>
2

>  <SCORE>
-11.414

>  <RMSD_LB_BP>
2.057

>  <RMSD_UB_BP>
2.870

$$$$
/content/1PQ6_Docking/DOCKING/CLC-0000191/CLC-0000191_output.pdbqt
 OpenBabel03072503353D

 41 44  0  0  1  0  0  0  0  0999 V2000
   18.8590   -4.3570   59.6940 N   0  0  0  0  0  0  0  0  0  0  0  0
   19.0880   -6.0070   59.0350 S   0  0  0  0  0  0  0  0  0  0  0  0
   17.7440   -6.7440   59.1260 O   0  0  0  0  0  0  0  0  0  0  0  0
   19.8800   -6.7220   60.1400 O   0  0  0  0  0  0  0  0  0  0  0  0
   19.9160   -6.2200   57.4600 C   0  0  0  0  0  0  0  0  0  0  0  0
   21.2690   -6.3980   57.2820 C   0  0  0  0  0  3  0  0  0  0  0  0
   21.4880   -6.5180   55.9620 N   0  0  0  0  0  0  0  0  0  0  0  0
   22.7690   -6.7200   55.2970 C   0  0  0  0  0  1  0  0  0  0  0  0
   20.2840   -6.4120   55.3680 C   0  0  0  0  0  3  0  0  0  0  0  0
   19.2930   -6.2290   56.2640 N   0  0  0  0  0  0  0  0  0  0  0  0
   18.2310   -3.5140   58.6480 C   0  0  0  0  0  2  0  0  0  0  0  0
   16.7730   -3.2290   58.9450 C   0  0  0  0  0  0  0  0  0  0  0  0
   16.3070   -1.9760   59.4050 C   0  0  0  0  0  0  0  0  0  0  0  0
   17.2430   -0.8140   59.6180 C   0  0  0  0  0  1  0  0  0  0  0  0
   14.9350   -1.8020   59.6690 C   0  0  0  0  0  3  0  0  0  0  0  0
   13.9960   -2.8470   59.4910 C   0  0  0  0  0  0  0  0  0  0  0  0
   14.4990   -4.0880   59.0380 C   0  0  0  0  0  3  0  0  0  0  0  0
   15.8560   -4.2710   58.7770 C   0  0  0  0  0  3  0  0  0  0  0  0
   12.5180   -2.6480   59.7750 C   0  0  0  0  0  0  0  0  0  0  0  0
   11.7090   -3.7060   60.2670 C   0  0  0  0  0  3  0  0  0  0  0  0
   10.3490   -3.5210   60.5250 C   0  0  0  0  0  3  0  0  0  0  0  0
    9.7520   -2.2850   60.3070 C   0  0  0  0  0  3  0  0  0  0  0  0
   10.5150   -1.2200   59.8290 C   0  0  0  0  0  0  0  0  0  0  0  0
   11.8780   -1.3990   59.5630 C   0  0  0  0  0  3  0  0  0  0  0  0
    9.7460    0.3790   59.5450 S   0  0  0  0  0  0  0  0  0  0  0  0
   10.4870    1.0310   58.3670 O   0  0  0  0  0  0  0  0  0  0  0  0
   10.2220    1.3200   60.6620 O   0  0  0  0  0  0  0  0  0  0  0  0
    7.9590    0.6410   59.3030 C   0  0  0  0  0  2  0  0  0  0  0  0
    7.6970    1.8290   58.3850 C   0  0  0  0  0  1  0  0  0  0  0  0
   18.1780   -4.3100   61.0250 C   0  0  2  0  0  3  0  0  0  0  0  0
   19.1020   -3.6510   62.0580 C   0  0  0  0  0  0  0  0  0  0  0  0
   18.7060   -2.6030   62.9080 C   0  0  0  0  0  0  0  0  0  0  0  0
   17.3600   -1.9700   63.0180 C   0  0  0  0  0  1  0  0  0  0  0  0
   20.0020   -2.1360   63.8720 S   0  0  0  0  0  0  0  0  0  0  0  0
   21.0880   -3.2440   63.2460 C   0  0  0  0  0  0  0  0  0  0  0  0
   22.5120   -3.3900   63.6660 C   0  0  0  0  0  1  0  0  0  0  0  0
   20.4580   -3.9990   62.2680 C   0  0  0  0  0  3  0  0  0  0  0  0
   17.6300   -5.6990   61.4790 C   0  0  0  0  0  2  0  0  0  0  0  0
   16.5890   -5.5810   62.6100 C   0  0  0  0  0  2  0  0  0  0  0  0
   15.2370   -5.1110   62.0590 C   0  0  0  0  0  2  0  0  0  0  0  0
   14.4550   -6.2730   61.4560 C   0  0  0  0  0  1  0  0  0  0  0  0
  1 30  1  0  0  0  0
  2  3  2  0  0  0  0
  2  1  1  0  0  0  0
  2  4  2  0  0  0  0
  5  2  1  0  0  0  0
  6  5  2  0  0  0  0
  7  6  1  0  0  0  0
  8  7  1  0  0  0  0
  9  7  1  0  0  0  0
  9 10  2  0  0  0  0
 10  5  1  0  0  0  0
 11 12  1  0  0  0  0
 11  1  1  0  0  0  0
 12 13  1  0  0  0  0
 13 14  1  0  0  0  0
 13 15  2  0  0  0  0
 16 15  1  0  0  0  0
 16 19  1  0  0  0  0
 17 16  2  0  0  0  0
 18 12  2  0  0  0  0
 18 17  1  0  0  0  0
 19 20  1  0  0  0  0
 20 21  2  0  0  0  0
 22 21  1  0  0  0  0
 23 22  2  0  0  0  0
 24 19  2  0  0  0  0
 24 23  1  0  0  0  0
 25 23  1  0  0  0  0
 25 27  2  0  0  0  0
 26 25  2  0  0  0  0
 28 25  1  0  0  0  0
 29 28  1  0  0  0  0
 30 38  1  1  0  0  0
 30 31  1  0  0  0  0
 31 37  1  0  0  0  0
 31 32  2  0  0  0  0
 32 33  1  0  0  0  0
 32 34  1  0  0  0  0
 35 36  1  0  0  0  0
 35 34  1  0  0  0  0
 37 35  2  0  0  0  0
 38 39  1  0  0  0  0
 40 39  1  0  0  0  0
 41 40  1  0  0  0  0
M  END
>  <POSE>
3

>  <SCORE>
-10.888

>  <RMSD_LB_BP>
1.569

>  <RMSD_UB_BP>
2.455

$$$$
/content/1PQ6_Docking/DOCKING/CLC-0000191/CLC-0000191_output.pdbqt
 OpenBabel03072503353D

 41 44  0  0  1  0  0  0  0  0999 V2000
   17.4360   -4.2500   59.9350 N   0  0  0  0  0  0  0  0  0  0  0  0
   18.8420   -4.9280   60.8150 S   0  0  0  0  0  0  0  0  0  0  0  0
   19.8360   -5.4650   59.7760 O   0  0  0  0  0  0  0  0  0  0  0  0
   18.2950   -6.2430   61.3920 O   0  0  0  0  0  0  0  0  0  0  0  0
   19.6140   -3.9690   62.1160 C   0  0  0  0  0  0  0  0  0  0  0  0
   18.9710   -3.0810   62.9480 C   0  0  0  0  0  3  0  0  0  0  0  0
   19.8940   -2.5690   63.7800 N   0  0  0  0  0  0  0  0  0  0  0  0
   19.6810   -1.5870   64.8350 C   0  0  0  0  0  1  0  0  0  0  0  0
   21.0650   -3.1440   63.4440 C   0  0  0  0  0  3  0  0  0  0  0  0
   20.9260   -4.0130   62.4230 N   0  0  0  0  0  0  0  0  0  0  0  0
   16.8110   -3.2040   60.7790 C   0  0  0  0  0  2  0  0  0  0  0  0
   15.3250   -3.0700   60.5130 C   0  0  0  0  0  0  0  0  0  0  0  0
   14.3890   -4.0830   60.8210 C   0  0  0  0  0  0  0  0  0  0  0  0
   14.8100   -5.3810   61.4620 C   0  0  0  0  0  1  0  0  0  0  0  0
   13.0270   -3.8800   60.5290 C   0  0  0  0  0  3  0  0  0  0  0  0
   12.5570   -2.6860   59.9280 C   0  0  0  0  0  0  0  0  0  0  0  0
   13.5220   -1.7000   59.6260 C   0  0  0  0  0  3  0  0  0  0  0  0
   14.8730   -1.8920   59.9100 C   0  0  0  0  0  3  0  0  0  0  0  0
   11.0850   -2.4760   59.6180 C   0  0  0  0  0  0  0  0  0  0  0  0
   10.1950   -3.5720   59.4680 C   0  0  0  0  0  3  0  0  0  0  0  0
    8.8430   -3.3750   59.1810 C   0  0  0  0  0  3  0  0  0  0  0  0
    8.3330   -2.0900   59.0360 C   0  0  0  0  0  3  0  0  0  0  0  0
    9.1740   -0.9880   59.1800 C   0  0  0  0  0  0  0  0  0  0  0  0
   10.5330   -1.1770   59.4640 C   0  0  0  0  0  3  0  0  0  0  0  0
    8.5190    0.6740   58.9930 S   0  0  0  0  0  0  0  0  0  0  0  0
    9.1630    1.5380   60.0880 O   0  0  0  0  0  0  0  0  0  0  0  0
    7.0790    0.6610   59.5290 O   0  0  0  0  0  0  0  0  0  0  0  0
    8.5370    1.6260   57.4390 C   0  0  0  0  0  2  0  0  0  0  0  0
    7.3610    2.5930   57.3720 C   0  0  0  0  0  1  0  0  0  0  0  0
   17.7300   -3.8250   58.5310 C   0  0  2  0  0  3  0  0  0  0  0  0
   18.2060   -5.0330   57.7130 C   0  0  0  0  0  0  0  0  0  0  0  0
   17.6410   -6.3180   57.8120 C   0  0  0  0  0  0  0  0  0  0  0  0
   16.4890   -6.7510   58.6540 C   0  0  0  0  0  1  0  0  0  0  0  0
   18.4490   -7.3720   56.7800 S   0  0  0  0  0  0  0  0  0  0  0  0
   19.5230   -6.2350   56.1830 C   0  0  0  0  0  0  0  0  0  0  0  0
   20.5880   -6.5000   55.1720 C   0  0  0  0  0  1  0  0  0  0  0  0
   19.2710   -5.0100   56.7810 C   0  0  0  0  0  3  0  0  0  0  0  0
   18.6960   -2.6030   58.4530 C   0  0  0  0  0  2  0  0  0  0  0  0
   18.0080   -1.3420   57.8930 C   0  0  0  0  0  2  0  0  0  0  0  0
   18.0010   -0.2160   58.9340 C   0  0  0  0  0  2  0  0  0  0  0  0
   18.6930   -0.6540   60.2220 C   0  0  0  0  0  1  0  0  0  0  0  0
  1 11  1  0  0  0  0
  1  2  1  0  0  0  0
  2  4  2  0  0  0  0
  2  5  1  0  0  0  0
  3  2  2  0  0  0  0
  5 10  1  0  0  0  0
  5  6  2  0  0  0  0
  6  7  1  0  0  0  0
  7  8  1  0  0  0  0
  9  7  1  0  0  0  0
 10  9  2  0  0  0  0
 12 11  1  0  0  0  0
 12 13  1  0  0  0  0
 13 14  1  0  0  0  0
 15 13  2  0  0  0  0
 16 15  1  0  0  0  0
 17 18  1  0  0  0  0
 17 16  2  0  0  0  0
 18 12  2  0  0  0  0
 19 16  1  0  0  0  0
 20 19  1  0  0  0  0
 21 20  2  0  0  0  0
 22 23  2  0  0  0  0
 22 21  1  0  0  0  0
 23 24  1  0  0  0  0
 24 19  2  0  0  0  0
 25 23  1  0  0  0  0
 25 27  2  0  0  0  0
 25 26  2  0  0  0  0
 28 25  1  0  0  0  0
 29 28  1  0  0  0  0
 30 38  1  1  0  0  0
 30  1  1  0  0  0  0
 31 32  2  0  0  0  0
 31 30  1  0  0  0  0
 32 33  1  0  0  0  0
 34 32  1  0  0  0  0
 35 34  1  0  0  0  0
 35 37  2  0  0  0  0
 36 35  1  0  0  0  0
 37 31  1  0  0  0  0
 39 38  1  0  0  0  0
 39 40  1  0  0  0  0
 40 41  1  0  0  0  0
M  END
>  <POSE>
4

>  <SCORE>
-10.437

>  <RMSD_LB_BP>
2.176

>  <RMSD_UB_BP>
4.994

$$$$
/content/1PQ6_Docking/DOCKING/CLC-0000191/CLC-0000191_output.pdbqt
 OpenBabel03072503353D

 41 44  0  0  1  0  0  0  0  0999 V2000
   17.6350   -4.9400   59.6080 N   0  0  0  0  0  0  0  0  0  0  0  0
   19.1340   -5.8920   59.3700 S   0  0  0  0  0  0  0  0  0  0  0  0
   18.9540   -7.2420   60.0790 O   0  0  0  0  0  0  0  0  0  0  0  0
   20.1390   -5.2090   60.3090 O   0  0  0  0  0  0  0  0  0  0  0  0
   19.8360   -6.0350   57.7280 C   0  0  0  0  0  0  0  0  0  0  0  0
   21.1210   -6.4340   57.4360 C   0  0  0  0  0  3  0  0  0  0  0  0
   21.2560   -6.4080   56.1000 N   0  0  0  0  0  0  0  0  0  0  0  0
   22.4440   -6.7510   55.3280 C   0  0  0  0  0  1  0  0  0  0  0  0
   20.0710   -5.9980   55.6080 C   0  0  0  0  0  3  0  0  0  0  0  0
   19.1740   -5.7610   56.5860 N   0  0  0  0  0  0  0  0  0  0  0  0
   16.5330   -5.8720   59.9500 C   0  0  0  0  0  2  0  0  0  0  0  0
   15.1990   -5.1630   60.0530 C   0  0  0  0  0  0  0  0  0  0  0  0
   14.3870   -5.2050   61.2100 C   0  0  0  0  0  0  0  0  0  0  0  0
   14.8100   -5.9570   62.4460 C   0  0  0  0  0  1  0  0  0  0  0  0
   13.1530   -4.5260   61.2150 C   0  0  0  0  0  3  0  0  0  0  0  0
   12.6900   -3.7980   60.0920 C   0  0  0  0  0  0  0  0  0  0  0  0
   13.5240   -3.7850   58.9510 C   0  0  0  0  0  3  0  0  0  0  0  0
   14.7460   -4.4560   58.9350 C   0  0  0  0  0  3  0  0  0  0  0  0
   11.3590   -3.0680   60.1080 C   0  0  0  0  0  0  0  0  0  0  0  0
   10.1640   -3.7150   60.5160 C   0  0  0  0  0  3  0  0  0  0  0  0
    8.9400   -3.0420   60.5270 C   0  0  0  0  0  3  0  0  0  0  0  0
    8.8660   -1.7090   60.1390 C   0  0  0  0  0  3  0  0  0  0  0  0
   10.0190   -1.0370   59.7370 C   0  0  0  0  0  0  0  0  0  0  0  0
   11.2490   -1.7080   59.7180 C   0  0  0  0  0  3  0  0  0  0  0  0
    9.9270    0.6850   59.2340 S   0  0  0  0  0  0  0  0  0  0  0  0
   11.1060    0.9400   58.2820 O   0  0  0  0  0  0  0  0  0  0  0  0
   10.4050    1.5350   60.4210 O   0  0  0  0  0  0  0  0  0  0  0  0
    8.4470    1.4790   58.5260 C   0  0  0  0  0  2  0  0  0  0  0  0
    8.6950    1.9210   57.0890 C   0  0  0  0  0  1  0  0  0  0  0  0
   17.7800   -3.7780   60.5390 C   0  0  2  0  0  3  0  0  0  0  0  0
   18.1350   -2.5160   59.7410 C   0  0  0  0  0  0  0  0  0  0  0  0
   17.2130   -1.5000   59.4310 C   0  0  0  0  0  0  0  0  0  0  0  0
   15.7780   -1.4110   59.8280 C   0  0  0  0  0  1  0  0  0  0  0  0
   17.9720   -0.3030   58.5260 S   0  0  0  0  0  0  0  0  0  0  0  0
   19.4790   -1.0330   58.5090 C   0  0  0  0  0  0  0  0  0  0  0  0
   20.6950   -0.4880   57.8390 C   0  0  0  0  0  1  0  0  0  0  0  0
   19.4150   -2.2280   59.2090 C   0  0  0  0  0  3  0  0  0  0  0  0
   18.7590   -4.0610   61.7200 C   0  0  0  0  0  2  0  0  0  0  0  0
   19.0020   -2.8160   62.5960 C   0  0  0  0  0  2  0  0  0  0  0  0
   20.3600   -2.9050   63.3040 C   0  0  0  0  0  2  0  0  0  0  0  0
   20.3090   -2.2420   64.6770 C   0  0  0  0  0  1  0  0  0  0  0  0
  1 11  1  0  0  0  0
  1 30  1  0  0  0  0
  2  1  1  0  0  0  0
  2  3  2  0  0  0  0
  2  4  2  0  0  0  0
  5  2  1  0  0  0  0
  6  5  2  0  0  0  0
  7  6  1  0  0  0  0
  8  7  1  0  0  0  0
  9  7  1  0  0  0  0
  9 10  2  0  0  0  0
 10  5  1  0  0  0  0
 11 12  1  0  0  0  0
 12 13  1  0  0  0  0
 13 15  2  0  0  0  0
 13 14  1  0  0  0  0
 16 19  1  0  0  0  0
 16 15  1  0  0  0  0
 17 16  2  0  0  0  0
 18 17  1  0  0  0  0
 18 12  2  0  0  0  0
 19 20  1  0  0  0  0
 20 21  2  0  0  0  0
 22 21  1  0  0  0  0
 23 22  2  0  0  0  0
 24 23  1  0  0  0  0
 24 19  2  0  0  0  0
 25 23  1  0  0  0  0
 25 27  2  0  0  0  0
 26 25  2  0  0  0  0
 28 25  1  0  0  0  0
 29 28  1  0  0  0  0
 30 38  1  1  0  0  0
 31 30  1  0  0  0  0
 32 31  2  0  0  0  0
 32 33  1  0  0  0  0
 34 32  1  0  0  0  0
 35 34  1  0  0  0  0
 35 37  2  0  0  0  0
 36 35  1  0  0  0  0
 37 31  1  0  0  0  0
 38 39  1  0  0  0  0
 39 40  1  0  0  0  0
 40 41  1  0  0  0  0
M  END
>  <POSE>
5

>  <SCORE>
-10.306

>  <RMSD_LB_BP>
1.790

>  <RMSD_UB_BP>
2.952

$$$$
/content/1PQ6_Docking/DOCKING/CLC-0000191/CLC-0000191_output.pdbqt
 OpenBabel03072503353D

 41 44  0  0  1  0  0  0  0  0999 V2000
   17.2200   -3.5850   60.4990 N   0  0  0  0  0  0  0  0  0  0  0  0
   17.6700   -2.1960   61.5390 S   0  0  0  0  0  0  0  0  0  0  0  0
   16.3800   -1.6070   62.1250 O   0  0  0  0  0  0  0  0  0  0  0  0
   18.0470   -1.1050   60.5260 O   0  0  0  0  0  0  0  0  0  0  0  0
   18.9830   -2.3860   62.7440 C   0  0  0  0  0  0  0  0  0  0  0  0
   20.1400   -3.1100   62.5630 C   0  0  0  0  0  3  0  0  0  0  0  0
   20.8590   -3.0050   63.6930 N   0  0  0  0  0  0  0  0  0  0  0  0
   22.1590   -3.6050   63.9680 C   0  0  0  0  0  1  0  0  0  0  0  0
   20.1390   -2.2340   64.5300 C   0  0  0  0  0  3  0  0  0  0  0  0
   18.9770   -1.8350   63.9740 N   0  0  0  0  0  0  0  0  0  0  0  0
   16.5810   -3.0630   59.2670 C   0  0  0  0  0  2  0  0  0  0  0  0
   15.0900   -2.8560   59.4420 C   0  0  0  0  0  0  0  0  0  0  0  0
   14.2030   -3.8940   59.8090 C   0  0  0  0  0  0  0  0  0  0  0  0
   14.6910   -5.2960   60.0710 C   0  0  0  0  0  1  0  0  0  0  0  0
   12.8290   -3.6170   59.9370 C   0  0  0  0  0  3  0  0  0  0  0  0
   12.2970   -2.3240   59.7080 C   0  0  0  0  0  0  0  0  0  0  0  0
   13.2120   -1.3140   59.3350 C   0  0  0  0  0  3  0  0  0  0  0  0
   14.5750   -1.5790   59.2020 C   0  0  0  0  0  3  0  0  0  0  0  0
   10.8140   -2.0340   59.8510 C   0  0  0  0  0  0  0  0  0  0  0  0
    9.9390   -2.9500   60.4930 C   0  0  0  0  0  3  0  0  0  0  0  0
    8.5740   -2.6820   60.6210 C   0  0  0  0  0  3  0  0  0  0  0  0
    8.0380   -1.5020   60.1210 C   0  0  0  0  0  3  0  0  0  0  0  0
    8.8650   -0.5760   59.4880 C   0  0  0  0  0  0  0  0  0  0  0  0
   10.2340   -0.8390   59.3510 C   0  0  0  0  0  3  0  0  0  0  0  0
    8.1750    0.9510   58.8390 S   0  0  0  0  0  0  0  0  0  0  0  0
    8.7540    2.1000   59.6800 O   0  0  0  0  0  0  0  0  0  0  0  0
    6.7160    1.0320   59.3160 O   0  0  0  0  0  0  0  0  0  0  0  0
    8.2280    1.4500   57.0880 C   0  0  0  0  0  2  0  0  0  0  0  0
    7.3840    2.6940   56.8440 C   0  0  0  0  0  1  0  0  0  0  0  0
   18.3240   -4.5660   60.2620 C   0  0  2  0  0  3  0  0  0  0  0  0
   18.5190   -4.7710   58.7540 C   0  0  0  0  0  0  0  0  0  0  0  0
   19.1150   -3.8210   57.9050 C   0  0  0  0  0  0  0  0  0  0  0  0
   19.6970   -2.4980   58.2740 C   0  0  0  0  0  1  0  0  0  0  0  0
   19.1240   -4.4000   56.3260 S   0  0  0  0  0  0  0  0  0  0  0  0
   18.3840   -5.8600   56.6760 C   0  0  0  0  0  0  0  0  0  0  0  0
   18.0590   -6.9230   55.6820 C   0  0  0  0  0  1  0  0  0  0  0  0
   18.1140   -5.9210   58.0340 C   0  0  0  0  0  3  0  0  0  0  0  0
   18.1350   -5.8990   61.0510 C   0  0  0  0  0  2  0  0  0  0  0  0
   19.3980   -6.7830   61.0250 C   0  0  0  0  0  2  0  0  0  0  0  0
   19.0460   -8.2240   60.6380 C   0  0  0  0  0  2  0  0  0  0  0  0
   19.5960   -8.5730   59.2580 C   0  0  0  0  0  1  0  0  0  0  0  0
  1  2  1  0  0  0  0
  2  3  2  0  0  0  0
  2  5  1  0  0  0  0
  4  2  2  0  0  0  0
  5 10  1  0  0  0  0
  6  5  2  0  0  0  0
  6  7  1  0  0  0  0
  7  8  1  0  0  0  0
  7  9  1  0  0  0  0
 10  9  2  0  0  0  0
 11 12  1  0  0  0  0
 11  1  1  0  0  0  0
 12 13  1  0  0  0  0
 13 15  2  0  0  0  0
 13 14  1  0  0  0  0
 16 19  1  0  0  0  0
 16 15  1  0  0  0  0
 17 16  2  0  0  0  0
 18 17  1  0  0  0  0
 18 12  2  0  0  0  0
 19 20  1  0  0  0  0
 20 21  2  0  0  0  0
 22 21  1  0  0  0  0
 23 22  2  0  0  0  0
 24 23  1  0  0  0  0
 24 19  2  0  0  0  0
 25 27  2  0  0  0  0
 25 23  1  0  0  0  0
 25 26  2  0  0  0  0
 28 25  1  0  0  0  0
 29 28  1  0  0  0  0
 30  1  1  0  0  0  0
 30 38  1  1  0  0  0
 31 30  1  0  0  0  0
 32 33  1  0  0  0  0
 32 31  2  0  0  0  0
 34 35  1  0  0  0  0
 34 32  1  0  0  0  0
 35 37  2  0  0  0  0
 36 35  1  0  0  0  0
 37 31  1  0  0  0  0
 39 38  1  0  0  0  0
 40 39  1  0  0  0  0
 41 40  1  0  0  0  0
M  END
>  <POSE>
6

>  <SCORE>
-10.003

>  <RMSD_LB_BP>
1.993

>  <RMSD_UB_BP>
4.408

$$$$
/content/1PQ6_Docking/DOCKING/CLC-0000191/CLC-0000191_output.pdbqt
 OpenBabel03072503353D

 41 44  0  0  1  0  0  0  0  0999 V2000
   17.6460   -3.7210   60.6800 N   0  0  0  0  0  0  0  0  0  0  0  0
   17.6700   -1.9310   60.6040 S   0  0  0  0  0  0  0  0  0  0  0  0
   18.0830   -1.4050   61.9860 O   0  0  0  0  0  0  0  0  0  0  0  0
   16.1800   -1.5590   60.5910 O   0  0  0  0  0  0  0  0  0  0  0  0
   18.5120   -1.1170   59.2480 C   0  0  0  0  0  0  0  0  0  0  0  0
   19.8740   -1.0930   59.0470 C   0  0  0  0  0  3  0  0  0  0  0  0
   20.1020   -0.3830   57.9290 N   0  0  0  0  0  0  0  0  0  0  0  0
   21.3930   -0.0890   57.3210 C   0  0  0  0  0  1  0  0  0  0  0  0
   18.8950    0.0070   57.4760 C   0  0  0  0  0  3  0  0  0  0  0  0
   17.8940   -0.4300   58.2670 N   0  0  0  0  0  0  0  0  0  0  0  0
   16.8250   -4.2300   59.5540 C   0  0  0  0  0  2  0  0  0  0  0  0
   15.3570   -3.9000   59.7260 C   0  0  0  0  0  0  0  0  0  0  0  0
   14.5260   -4.5370   60.6760 C   0  0  0  0  0  0  0  0  0  0  0  0
   15.0600   -5.5930   61.6100 C   0  0  0  0  0  1  0  0  0  0  0  0
   13.1680   -4.1780   60.7600 C   0  0  0  0  0  3  0  0  0  0  0  0
   12.5960   -3.1930   59.9170 C   0  0  0  0  0  0  0  0  0  0  0  0
   13.4540   -2.5840   58.9740 C   0  0  0  0  0  3  0  0  0  0  0  0
   14.8000   -2.9350   58.8810 C   0  0  0  0  0  3  0  0  0  0  0  0
   11.1300   -2.8110   60.0170 C   0  0  0  0  0  0  0  0  0  0  0  0
   10.1550   -3.7320   60.4830 C   0  0  0  0  0  3  0  0  0  0  0  0
    8.8070   -3.3780   60.5710 C   0  0  0  0  0  3  0  0  0  0  0  0
    8.3860   -2.1050   60.2050 C   0  0  0  0  0  3  0  0  0  0  0  0
    9.3150   -1.1720   59.7470 C   0  0  0  0  0  0  0  0  0  0  0  0
   10.6690   -1.5200   59.6510 C   0  0  0  0  0  3  0  0  0  0  0  0
    8.7750    0.4750   59.2710 S   0  0  0  0  0  0  0  0  0  0  0  0
    9.4850    1.4680   60.2040 O   0  0  0  0  0  0  0  0  0  0  0  0
    7.3420    0.6540   59.7930 O   0  0  0  0  0  0  0  0  0  0  0  0
    8.8500    1.1400   57.5760 C   0  0  0  0  0  2  0  0  0  0  0  0
    7.8890    2.3090   57.4020 C   0  0  0  0  0  1  0  0  0  0  0  0
   18.9960   -4.3550   60.8040 C   0  0  2  0  0  3  0  0  0  0  0  0
   19.0570   -5.6170   59.9320 C   0  0  0  0  0  0  0  0  0  0  0  0
   19.3200   -5.6030   58.5510 C   0  0  0  0  0  0  0  0  0  0  0  0
   19.6260   -4.4260   57.6870 C   0  0  0  0  0  1  0  0  0  0  0  0
   19.2780   -7.1730   57.9510 S   0  0  0  0  0  0  0  0  0  0  0  0
   18.9320   -7.9060   59.4160 C   0  0  0  0  0  0  0  0  0  0  0  0
   18.7440   -9.3700   59.6260 C   0  0  0  0  0  1  0  0  0  0  0  0
   18.8420   -6.9350   60.4020 C   0  0  0  0  0  3  0  0  0  0  0  0
   19.4200   -4.6010   62.2850 C   0  0  0  0  0  2  0  0  0  0  0  0
   20.6390   -3.7530   62.6970 C   0  0  0  0  0  2  0  0  0  0  0  0
   20.2730   -2.7880   63.8310 C   0  0  0  0  0  2  0  0  0  0  0  0
   21.4130   -2.6640   64.8380 C   0  0  0  0  0  1  0  0  0  0  0  0
  1 30  1  0  0  0  0
  2  1  1  0  0  0  0
  2  3  2  0  0  0  0
  4  2  2  0  0  0  0
  5  2  1  0  0  0  0
  6  5  2  0  0  0  0
  7  6  1  0  0  0  0
  8  7  1  0  0  0  0
  9  7  1  0  0  0  0
  9 10  2  0  0  0  0
 10  5  1  0  0  0  0
 11 12  1  0  0  0  0
 11  1  1  0  0  0  0
 12 13  1  0  0  0  0
 13 15  2  0  0  0  0
 13 14  1  0  0  0  0
 16 19  1  0  0  0  0
 16 15  1  0  0  0  0
 17 16  2  0  0  0  0
 18 17  1  0  0  0  0
 18 12  2  0  0  0  0
 19 20  1  0  0  0  0
 20 21  2  0  0  0  0
 22 21  1  0  0  0  0
 23 22  2  0  0  0  0
 24 23  1  0  0  0  0
 24 19  2  0  0  0  0
 25 23  1  0  0  0  0
 25 27  2  0  0  0  0
 25 26  2  0  0  0  0
 28 25  1  0  0  0  0
 29 28  1  0  0  0  0
 30 38  1  1  0  0  0
 31 37  1  0  0  0  0
 31 30  1  0  0  0  0
 32 31  2  0  0  0  0
 33 32  1  0  0  0  0
 34 32  1  0  0  0  0
 34 35  1  0  0  0  0
 35 36  1  0  0  0  0
 35 37  2  0  0  0  0
 38 39  1  0  0  0  0
 39 40  1  0  0  0  0
 40 41  1  0  0  0  0
M  END
>  <POSE>
7

>  <SCORE>
-9.654

>  <RMSD_LB_BP>
2.182

>  <RMSD_UB_BP>
4.073

$$$$
/content/1PQ6_Docking/DOCKING/CLC-0000191/CLC-0000191_output.pdbqt
 OpenBabel03072503353D

 41 44  0  0  1  0  0  0  0  0999 V2000
   17.2710   -4.5370   60.0670 N   0  0  0  0  0  0  0  0  0  0  0  0
   17.1180   -6.3080   60.2930 S   0  0  0  0  0  0  0  0  0  0  0  0
   15.6650   -6.6110   60.6850 O   0  0  0  0  0  0  0  0  0  0  0  0
   17.8310   -6.5550   61.6320 O   0  0  0  0  0  0  0  0  0  0  0  0
   17.7690   -7.4170   59.0450 C   0  0  0  0  0  0  0  0  0  0  0  0
   17.4210   -7.4180   57.7130 C   0  0  0  0  0  3  0  0  0  0  0  0
   18.1250   -8.3950   57.1160 N   0  0  0  0  0  0  0  0  0  0  0  0
   18.0880   -8.7720   55.7080 C   0  0  0  0  0  1  0  0  0  0  0  0
   18.8750   -8.9630   58.0790 C   0  0  0  0  0  3  0  0  0  0  0  0
   18.6800   -8.3820   59.2800 N   0  0  0  0  0  0  0  0  0  0  0  0
   16.5200   -3.8570   61.1490 C   0  0  0  0  0  2  0  0  0  0  0  0
   15.1170   -3.4800   60.7200 C   0  0  0  0  0  0  0  0  0  0  0  0
   14.8200   -2.3070   59.9890 C   0  0  0  0  0  0  0  0  0  0  0  0
   15.9010   -1.3440   59.5660 C   0  0  0  0  0  1  0  0  0  0  0  0
   13.4860   -2.0270   59.6410 C   0  0  0  0  0  3  0  0  0  0  0  0
   12.4180   -2.8850   60.0020 C   0  0  0  0  0  0  0  0  0  0  0  0
   12.7510   -4.0430   60.7390 C   0  0  0  0  0  3  0  0  0  0  0  0
   14.0700   -4.3280   61.0910 C   0  0  0  0  0  3  0  0  0  0  0  0
   10.9820   -2.5750   59.6200 C   0  0  0  0  0  0  0  0  0  0  0  0
   10.0350   -3.6090   59.3990 C   0  0  0  0  0  3  0  0  0  0  0  0
    8.7150   -3.3220   59.0440 C   0  0  0  0  0  3  0  0  0  0  0  0
    8.2940   -2.0040   58.9010 C   0  0  0  0  0  3  0  0  0  0  0  0
    9.1940   -0.9610   59.1140 C   0  0  0  0  0  0  0  0  0  0  0  0
   10.5210   -1.2420   59.4650 C   0  0  0  0  0  3  0  0  0  0  0  0
    8.6550    0.7430   58.9290 S   0  0  0  0  0  0  0  0  0  0  0  0
    9.4050    1.5700   59.9840 O   0  0  0  0  0  0  0  0  0  0  0  0
    7.2420    0.8420   59.5230 O   0  0  0  0  0  0  0  0  0  0  0  0
    8.6780    1.6720   57.3620 C   0  0  0  0  0  2  0  0  0  0  0  0
    7.4720    2.5970   57.2520 C   0  0  0  0  0  1  0  0  0  0  0  0
   18.6750   -4.0550   59.8830 C   0  0  2  0  0  3  0  0  0  0  0  0
   19.2260   -4.5630   58.5430 C   0  0  0  0  0  0  0  0  0  0  0  0
   18.7610   -4.1280   57.2890 C   0  0  0  0  0  0  0  0  0  0  0  0
   17.7200   -3.0990   57.0030 C   0  0  0  0  0  1  0  0  0  0  0  0
   19.5910   -4.9330   56.0680 S   0  0  0  0  0  0  0  0  0  0  0  0
   20.5570   -5.8420   57.0890 C   0  0  0  0  0  0  0  0  0  0  0  0
   21.5840   -6.8320   56.6520 C   0  0  0  0  0  1  0  0  0  0  0  0
   20.2470   -5.5350   58.4050 C   0  0  0  0  0  3  0  0  0  0  0  0
   19.5970   -4.3820   61.0980 C   0  0  0  0  0  2  0  0  0  0  0  0
   19.9630   -3.1270   61.9150 C   0  0  0  0  0  2  0  0  0  0  0  0
   19.2790   -1.8820   61.3370 C   0  0  0  0  0  2  0  0  0  0  0  0
   18.4410   -1.1720   62.3960 C   0  0  0  0  0  1  0  0  0  0  0  0
  1  2  1  0  0  0  0
  1 11  1  0  0  0  0
  2  3  2  0  0  0  0
  2  4  2  0  0  0  0
  5 10  1  0  0  0  0
  5  2  1  0  0  0  0
  6  5  2  0  0  0  0
  7  6  1  0  0  0  0
  7  9  1  0  0  0  0
  8  7  1  0  0  0  0
  9 10  2  0  0  0  0
 12 18  1  0  0  0  0
 12 11  1  0  0  0  0
 13 12  2  0  0  0  0
 14 13  1  0  0  0  0
 15 13  1  0  0  0  0
 15 16  2  0  0  0  0
 16 17  1  0  0  0  0
 17 18  2  0  0  0  0
 19 16  1  0  0  0  0
 20 19  2  0  0  0  0
 21 20  1  0  0  0  0
 22 21  2  0  0  0  0
 22 23  1  0  0  0  0
 23 24  2  0  0  0  0
 24 19  1  0  0  0  0
 25 23  1  0  0  0  0
 25 27  2  0  0  0  0
 25 26  2  0  0  0  0
 28 25  1  0  0  0  0
 29 28  1  0  0  0  0
 30  1  1  0  0  0  0
 30 38  1  1  0  0  0
 31 30  1  0  0  0  0
 32 31  2  0  0  0  0
 33 32  1  0  0  0  0
 34 35  1  0  0  0  0
 34 32  1  0  0  0  0
 35 37  2  0  0  0  0
 36 35  1  0  0  0  0
 37 31  1  0  0  0  0
 38 39  1  0  0  0  0
 40 39  1  0  0  0  0
 40 41  1  0  0  0  0
M  END
>  <POSE>
8

>  <SCORE>
-9.338

>  <RMSD_LB_BP>
2.119

>  <RMSD_UB_BP>
3.996

$$$$
/content/1PQ6_Docking/DOCKING/CLC-0000191/CLC-0000191_output.pdbqt
 OpenBabel03072503353D

 41 44  0  0  1  0  0  0  0  0999 V2000
   18.0530   -4.7950   60.2500 N   0  0  0  0  0  0  0  0  0  0  0  0
   17.9660   -3.8990   61.7990 S   0  0  0  0  0  0  0  0  0  0  0  0
   16.9070   -4.5770   62.6790 O   0  0  0  0  0  0  0  0  0  0  0  0
   17.2320   -2.6040   61.4170 O   0  0  0  0  0  0  0  0  0  0  0  0
   19.4780   -3.5040   62.6750 C   0  0  0  0  0  0  0  0  0  0  0  0
   19.6190   -2.5250   63.6330 C   0  0  0  0  0  3  0  0  0  0  0  0
   20.8980   -2.5450   64.0420 N   0  0  0  0  0  0  0  0  0  0  0  0
   21.5140   -1.6870   65.0470 C   0  0  0  0  0  1  0  0  0  0  0  0
   21.5050   -3.5190   63.3380 C   0  0  0  0  0  3  0  0  0  0  0  0
   20.6570   -4.1300   62.4870 N   0  0  0  0  0  0  0  0  0  0  0  0
   16.7550   -5.4770   60.0270 C   0  0  0  0  0  2  0  0  0  0  0  0
   15.6010   -4.4990   59.9580 C   0  0  0  0  0  0  0  0  0  0  0  0
   14.3870   -4.6840   60.6580 C   0  0  0  0  0  0  0  0  0  0  0  0
   14.1610   -5.8790   61.5470 C   0  0  0  0  0  1  0  0  0  0  0  0
   13.3600   -3.7300   60.5270 C   0  0  0  0  0  3  0  0  0  0  0  0
   13.5000   -2.5810   59.7110 C   0  0  0  0  0  0  0  0  0  0  0  0
   14.7240   -2.4330   59.0200 C   0  0  0  0  0  3  0  0  0  0  0  0
   15.7450   -3.3740   59.1400 C   0  0  0  0  0  3  0  0  0  0  0  0
   12.3870   -1.5560   59.5790 C   0  0  0  0  0  0  0  0  0  0  0  0
   12.6540   -0.2210   59.1770 C   0  0  0  0  0  3  0  0  0  0  0  0
   11.6290    0.7210   59.0600 C   0  0  0  0  0  3  0  0  0  0  0  0
   10.3130    0.3670   59.3330 C   0  0  0  0  0  3  0  0  0  0  0  0
   10.0100   -0.9360   59.7260 C   0  0  0  0  0  0  0  0  0  0  0  0
   11.0340   -1.8840   59.8510 C   0  0  0  0  0  3  0  0  0  0  0  0
    8.3100   -1.3960   60.0810 S   0  0  0  0  0  0  0  0  0  0  0  0
    8.3420   -2.3210   61.3080 O   0  0  0  0  0  0  0  0  0  0  0  0
    7.8870   -2.4290   59.0270 O   0  0  0  0  0  0  0  0  0  0  0  0
    6.9410   -0.2130   60.3000 C   0  0  0  0  0  2  0  0  0  0  0  0
    6.2740   -0.3900   61.6580 C   0  0  0  0  0  1  0  0  0  0  0  0
   18.5380   -3.9840   59.0900 C   0  0  2  0  0  3  0  0  0  0  0  0
   19.2560   -4.8950   58.0850 C   0  0  0  0  0  0  0  0  0  0  0  0
   19.0720   -4.8240   56.6930 C   0  0  0  0  0  0  0  0  0  0  0  0
   18.2190   -3.8690   55.9280 C   0  0  0  0  0  1  0  0  0  0  0  0
   20.0090   -5.9980   55.9370 S   0  0  0  0  0  0  0  0  0  0  0  0
   20.6710   -6.6180   57.3440 C   0  0  0  0  0  0  0  0  0  0  0  0
   21.6410   -7.7490   57.4160 C   0  0  0  0  0  1  0  0  0  0  0  0
   20.1700   -5.9200   58.4310 C   0  0  0  0  0  3  0  0  0  0  0  0
   19.3850   -2.7470   59.5230 C   0  0  0  0  0  2  0  0  0  0  0  0
   19.4680   -1.6740   58.4200 C   0  0  0  0  0  2  0  0  0  0  0  0
   18.0900   -1.0530   58.1600 C   0  0  0  0  0  2  0  0  0  0  0  0
   17.6990   -0.0940   59.2800 C   0  0  0  0  0  1  0  0  0  0  0  0
  1  2  1  0  0  0  0
  2  5  1  0  0  0  0
  2  3  2  0  0  0  0
  4  2  2  0  0  0  0
  5  6  2  0  0  0  0
  6  7  1  0  0  0  0
  7  8  1  0  0  0  0
  9  7  1  0  0  0  0
 10  5  1  0  0  0  0
 10  9  2  0  0  0  0
 11  1  1  0  0  0  0
 12 11  1  0  0  0  0
 12 13  1  0  0  0  0
 13 14  1  0  0  0  0
 15 13  2  0  0  0  0
 16 15  1  0  0  0  0
 17 18  1  0  0  0  0
 17 16  2  0  0  0  0
 18 12  2  0  0  0  0
 19 16  1  0  0  0  0
 19 24  1  0  0  0  0
 20 19  2  0  0  0  0
 21 20  1  0  0  0  0
 21 22  2  0  0  0  0
 22 23  1  0  0  0  0
 23 24  2  0  0  0  0
 23 25  1  0  0  0  0
 25 28  1  0  0  0  0
 25 26  2  0  0  0  0
 27 25  2  0  0  0  0
 28 29  1  0  0  0  0
 30 38  1  1  0  0  0
 30  1  1  0  0  0  0
 31 37  1  0  0  0  0
 31 30  1  0  0  0  0
 32 31  2  0  0  0  0
 33 32  1  0  0  0  0
 34 32  1  0  0  0  0
 34 35  1  0  0  0  0
 35 36  1  0  0  0  0
 35 37  2  0  0  0  0
 39 38  1  0  0  0  0
 40 39  1  0  0  0  0
 40 41  1  0  0  0  0
M  END
>  <POSE>
9

>  <SCORE>
-9.257

>  <RMSD_LB_BP>
2.510

>  <RMSD_UB_BP>
5.147

$$$$
