@<TRIPOS>MOLECULE
*****
 80 83 0 0 0
SMALL
GASTEIGER

@<TRIPOS>ATOM
      1 C           3.4731    0.6586   -5.7346 C.3     1  UNL1       -0.0653
      2 C           4.3206    1.8879   -5.4090 C.3     1  UNL1       -0.0559
      3 C           3.6800    2.8049   -4.3513 C.3     1  UNL1       -0.0515
      4 C           3.4302    2.1603   -2.9698 C.3     1  UNL1       -0.0316
      5 C           4.7062    1.6925   -2.2241 C.3     1  UNL1        0.0579
      6 N           4.3648    0.9316   -0.9839 N.3     1  UNL1       -0.1634
      7 C           5.7001    2.8280   -1.9972 C.ar    1  UNL1       -0.0184
      8 S           3.7657    1.8681    0.4305 S.O2    1  UNL1        0.0803
      9 C           5.4525    0.0095   -0.5821 C.3     1  UNL1        0.0465
     10 C           5.3575    4.0621   -1.4092 C.ar    1  UNL1       -0.0468
     11 C           7.0518    2.7814   -2.3741 C.ar    1  UNL1       -0.0083
     12 C           4.9087    2.6862    1.5420 C.ar    1  UNL1        0.2114
     13 O           2.9502    0.8387    1.2276 O.2     1  UNL1       -0.1513
     14 O           2.6305    2.7802   -0.0517 O.2     1  UNL1       -0.1513
     15 N           6.1889    2.9861    1.2447 N.ar    1  UNL1       -0.2163
     16 C           4.6237    3.0847    2.8277 C.ar    1  UNL1        0.0507
     17 C           6.6677    3.5726    2.3607 C.ar    1  UNL1        0.0980
     18 N           5.7367    3.6405    3.3324 N.ar    1  UNL1       -0.3379
     19 C           5.8963    4.1993    4.6685 C.3     1  UNL1        0.0128
     20 C           4.9452   -1.0769    0.3474 C.ar    1  UNL1       -0.0287
     21 C           6.4190    4.9497   -1.3178 C.ar    1  UNL1       -0.0127
     22 C           7.7766    1.6419   -3.0184 C.3     1  UNL1       -0.0331
     23 S           7.7920    4.2360   -1.9635 S.2     1  UNL1       -0.0984
     24 C           3.8782   -1.8686   -0.0923 C.ar    1  UNL1       -0.0565
     25 C           5.5033   -1.3322    1.6212 C.ar    1  UNL1       -0.0454
     26 C           6.3499    6.3214   -0.7363 C.3     1  UNL1       -0.0334
     27 C           3.3528   -2.8821    0.7075 C.ar    1  UNL1       -0.0537
     28 C           6.6741   -0.5423    2.1481 C.3     1  UNL1       -0.0394
     29 C           4.9662   -2.3582    2.4208 C.ar    1  UNL1       -0.0508
     30 C           3.8776   -3.1562    1.9913 C.ar    1  UNL1       -0.0176
     31 C           3.3007   -4.2570    2.8667 C.ar    1  UNL1       -0.0161
     32 C           2.2480   -5.0920    2.4111 C.ar    1  UNL1       -0.0539
     33 C           3.7854   -4.4968    4.1795 C.ar    1  UNL1       -0.0292
     34 C           1.7174   -6.0998    3.2200 C.ar    1  UNL1       -0.0594
     35 C           3.2498   -5.5108    4.9842 C.ar    1  UNL1        0.0887
     36 C           2.2140   -6.3092    4.5018 C.ar    1  UNL1       -0.0368
     37 S           3.8899   -5.7717    6.6422 S.O2    1  UNL1       -0.0033
     38 C           3.3259   -4.8701    8.1217 C.3     1  UNL1        0.0681
     39 O           5.4195   -5.6454    6.5591 O.2     1  UNL1       -0.1694
     40 O           3.8001   -7.2776    6.9362 O.2     1  UNL1       -0.1694
     41 C           4.1109   -5.2933    9.3571 C.3     1  UNL1       -0.0453
     42 H           3.9670    0.0742   -6.5392 H       1  UNL1        0.0230
     43 H           2.4658    0.9670   -6.0864 H       1  UNL1        0.0230
     44 H           3.3705   -0.0010   -4.8489 H       1  UNL1        0.0230
     45 H           5.3277    1.5639   -5.0882 H       1  UNL1        0.0263
     46 H           4.4441    2.4784   -6.3426 H       1  UNL1        0.0263
     47 H           4.3242    3.7013   -4.2235 H       1  UNL1        0.0266
     48 H           2.7020    3.1548   -4.7485 H       1  UNL1        0.0266
     49 H           2.7417    1.2977   -3.0876 H       1  UNL1        0.0284
     50 H           2.8958    2.9171   -2.3701 H       1  UNL1        0.0284
     51 H           5.1734    0.9626   -2.9152 H       1  UNL1        0.0529
     52 H           6.2995    0.5874   -0.1618 H       1  UNL1        0.0493
     53 H           5.8395   -0.5309   -1.4730 H       1  UNL1        0.0493
     54 H           4.3675    4.3154   -1.0617 H       1  UNL1        0.0629
     55 H           3.6839    2.9755    3.3535 H       1  UNL1        0.0845
     56 H           7.6811    3.9394    2.4591 H       1  UNL1        0.1029
     57 H           5.1757    5.0312    4.8139 H       1  UNL1        0.0456
     58 H           6.9276    4.5878    4.8079 H       1  UNL1        0.0456
     59 H           5.7042    3.4116    5.4272 H       1  UNL1        0.0456
     60 H           7.7321    0.7483   -2.3643 H       1  UNL1        0.0283
     61 H           8.8426    1.9068   -3.1788 H       1  UNL1        0.0283
     62 H           7.3268    1.4044   -4.0009 H       1  UNL1        0.0283
     63 H           3.4404   -1.6940   -1.0683 H       1  UNL1        0.0621
     64 H           7.3435    6.8135   -0.7890 H       1  UNL1        0.0283
     65 H           6.0338    6.2583    0.3260 H       1  UNL1        0.0283
     66 H           5.6145    6.9296   -1.3030 H       1  UNL1        0.0283
     67 H           2.5283   -3.4295    0.2869 H       1  UNL1        0.0624
     68 H           7.5412   -0.6528    1.4637 H       1  UNL1        0.0278
     69 H           6.9923   -0.8861    3.1550 H       1  UNL1        0.0278
     70 H           6.4030    0.5244    2.2357 H       1  UNL1        0.0278
     71 H           5.4273   -2.5119    3.3791 H       1  UNL1        0.0626
     72 H           1.8098   -4.9966    1.4336 H       1  UNL1        0.0624
     73 H           4.5754   -3.9144    4.6172 H       1  UNL1        0.0643
     74 H           0.9135   -6.7224    2.8482 H       1  UNL1        0.0618
     75 H           1.7908   -7.0923    5.1177 H       1  UNL1        0.0636
     76 H           2.2481   -5.0822    8.2832 H       1  UNL1        0.0501
     77 H           3.4680   -3.7815    7.9551 H       1  UNL1        0.0501
     78 H           3.9749   -6.3790    9.5464 H       1  UNL1        0.0245
     79 H           3.7455   -4.7292   10.2409 H       1  UNL1        0.0245
     80 H           5.1915   -5.0777    9.2199 H       1  UNL1        0.0245
@<TRIPOS>BOND
     1    13     8    2
     2     8     6    1
     3     6     9    1
     4     9    20    1
     5    20    25   ar
     6    25    28    1
     7    25    29   ar
     8    29    30   ar
     9    30    31    1
    10    31    32   ar
    11    32    34   ar
    12    34    36   ar
    13    36    35   ar
    14    35    37    1
    15    37    39    2
    16    37    38    1
    17    38    41    1
    18    37    40    2
    19    35    33   ar
    20    31    33   ar
    21    30    27   ar
    22    27    24   ar
    23    20    24   ar
    24     4     3    1
    25     3     2    1
    26     2     1    1
    27     5     7    1
    28     7    11   ar
    29    11    22    1
    30    11    23   ar
    31    23    21   ar
    32    21    26    1
    33    21    10   ar
    34     7    10   ar
    35     8    12    1
    36    12    16   ar
    37    16    18   ar
    38    18    19    1
    39    18    17   ar
    40    17    15   ar
    41    12    15   ar
    42     8    14    2
    43     5     4    1
    44     5     6    1
    45     1    42    1
    46     1    43    1
    47     1    44    1
    48     2    45    1
    49     2    46    1
    50     3    47    1
    51     3    48    1
    52     4    49    1
    53     4    50    1
    54     5    51    1
    55     9    52    1
    56     9    53    1
    57    10    54    1
    58    16    55    1
    59    17    56    1
    60    19    57    1
    61    19    58    1
    62    19    59    1
    63    22    60    1
    64    22    61    1
    65    22    62    1
    66    24    63    1
    67    26    64    1
    68    26    65    1
    69    26    66    1
    70    27    67    1
    71    28    68    1
    72    28    69    1
    73    28    70    1
    74    29    71    1
    75    32    72    1
    76    33    73    1
    77    34    74    1
    78    36    75    1
    79    38    76    1
    80    38    77    1
    81    41    78    1
    82    41    79    1
    83    41    80    1
