@<TRIPOS>MOLECULE
*****
 71 74 0 0 0
SMALL
GASTEIGER

@<TRIPOS>ATOM
      1 C           3.4748    2.5639   -3.3199 C.3     1  UNL1       -0.0635
      2 C           3.0260    2.2096   -1.9011 C.3     1  UNL1       -0.0344
      3 C           3.4956    0.7948   -1.4675 C.3     1  UNL1        0.0577
      4 N           3.0022    0.3550   -0.1306 N.3     1  UNL1       -0.1634
      5 C           4.9953    0.5333   -1.6607 C.ar    1  UNL1       -0.0184
      6 S           1.2095    0.2914   -0.0471 S.O2    1  UNL1        0.0803
      7 C           3.5672    1.0437    1.0450 C.3     1  UNL1        0.0465
      8 C           5.4064   -0.5896   -2.4115 C.ar    1  UNL1       -0.0468
      9 C           6.1050    1.2923   -1.2100 C.ar    1  UNL1       -0.0083
     10 C           0.2745    1.7721    0.3337 C.ar    1  UNL1        0.2114
     11 O           0.8981   -0.8397    0.9447 O.2     1  UNL1       -0.1513
     12 O           0.7467   -0.3492   -1.3651 O.2     1  UNL1       -0.1513
     13 N           0.7922    3.0159    0.3768 N.ar    1  UNL1       -0.2163
     14 C          -1.0719    1.8178    0.6133 C.ar    1  UNL1        0.0507
     15 C          -0.2545    3.8079    0.6870 C.ar    1  UNL1        0.0980
     16 N          -1.3929    3.1033    0.8332 N.ar    1  UNL1       -0.3379
     17 C          -2.7082    3.6380    1.1614 C.3     1  UNL1        0.0128
     18 C           3.2630    0.2778    2.3217 C.ar    1  UNL1       -0.0287
     19 C           6.7789   -0.7218   -2.5347 C.ar    1  UNL1       -0.0127
     20 C           6.1673    2.5713   -0.4287 C.3     1  UNL1       -0.0331
     21 S           7.5196    0.5452   -1.7341 S.2     1  UNL1       -0.0984
     22 C           3.7256   -1.0439    2.3805 C.ar    1  UNL1       -0.0565
     23 C           2.5626    0.8004    3.4411 C.ar    1  UNL1       -0.0454
     24 C           7.4829   -1.8146   -3.2667 C.3     1  UNL1       -0.0334
     25 C           3.5087   -1.8431    3.4994 C.ar    1  UNL1       -0.0537
     26 C           2.0146    2.2057    3.5296 C.3     1  UNL1       -0.0394
     27 C           2.3498   -0.0216    4.5652 C.ar    1  UNL1       -0.0508
     28 C           2.8136   -1.3581    4.6281 C.ar    1  UNL1       -0.0176
     29 C           2.5814   -2.2310    5.8514 C.ar    1  UNL1       -0.0161
     30 C           3.0536   -3.5682    5.9082 C.ar    1  UNL1       -0.0539
     31 C           1.8850   -1.7495    6.9914 C.ar    1  UNL1       -0.0292
     32 C           2.8404   -4.3681    7.0332 C.ar    1  UNL1       -0.0594
     33 C           1.6780   -2.5576    8.1180 C.ar    1  UNL1        0.0884
     34 C           2.1553   -3.8669    8.1339 C.ar    1  UNL1       -0.0369
     35 S           0.7895   -1.9153    9.5410 S.O2    1  UNL1       -0.0059
     36 O           1.1848   -0.4392    9.7024 O.2     1  UNL1       -0.1696
     37 O           1.4806   -2.4691   10.7966 O.2     1  UNL1       -0.1696
     38 C          -1.0006   -2.0365    9.8064 C.3     1  UNL1        0.0596
     39 H           3.0776    3.5634   -3.5957 H       1  UNL1        0.0230
     40 H           3.0886    1.8157   -4.0443 H       1  UNL1        0.0230
     41 H           4.5821    2.6000   -3.3870 H       1  UNL1        0.0230
     42 H           1.9188    2.2446   -1.8982 H       1  UNL1        0.0281
     43 H           3.3749    2.9945   -1.2111 H       1  UNL1        0.0281
     44 H           3.0038    0.1082   -2.1901 H       1  UNL1        0.0529
     45 H           3.2439    2.0947    1.0447 H       1  UNL1        0.0493
     46 H           4.6671    1.0356    0.9884 H       1  UNL1        0.0493
     47 H           4.7173   -1.2975   -2.8550 H       1  UNL1        0.0629
     48 H          -1.7605    0.9834    0.6504 H       1  UNL1        0.0845
     49 H          -0.1837    4.8819    0.8012 H       1  UNL1        0.1029
     50 H          -3.4589    2.8206    1.2129 H       1  UNL1        0.0456
     51 H          -3.0209    4.3636    0.3813 H       1  UNL1        0.0456
     52 H          -2.6679    4.1523    2.1443 H       1  UNL1        0.0456
     53 H           5.1842    2.9659   -0.1405 H       1  UNL1        0.0283
     54 H           6.6830    3.3438   -1.0359 H       1  UNL1        0.0283
     55 H           6.7491    2.4014    0.5011 H       1  UNL1        0.0283
     56 H           4.2665   -1.4662    1.5411 H       1  UNL1        0.0621
     57 H           8.5823   -1.6736   -3.2066 H       1  UNL1        0.0283
     58 H           7.1753   -1.8065   -4.3332 H       1  UNL1        0.0283
     59 H           7.2192   -2.7942   -2.8163 H       1  UNL1        0.0283
     60 H           3.9041   -2.8413    3.4425 H       1  UNL1        0.0624
     61 H           2.2028    2.8435    2.6552 H       1  UNL1        0.0278
     62 H           2.4681    2.7197    4.4035 H       1  UNL1        0.0278
     63 H           0.9142    2.1617    3.6746 H       1  UNL1        0.0278
     64 H           1.8138    0.4236    5.3848 H       1  UNL1        0.0626
     65 H           3.5923   -4.0322    5.1016 H       1  UNL1        0.0624
     66 H           1.4879   -0.7523    7.0434 H       1  UNL1        0.0643
     67 H           3.2105   -5.3854    7.0496 H       1  UNL1        0.0618
     68 H           1.9966   -4.4990    8.9982 H       1  UNL1        0.0636
     69 H          -1.5341   -1.5161    8.9847 H       1  UNL1        0.0468
     70 H          -1.2635   -1.5545   10.7706 H       1  UNL1        0.0468
     71 H          -1.2986   -3.1045    9.8442 H       1  UNL1        0.0468
@<TRIPOS>BOND
     1    11     6    2
     2     6     4    1
     3     4     7    1
     4     7    18    1
     5    18    23   ar
     6    23    26    1
     7    23    27   ar
     8    27    28   ar
     9    28    29    1
    10    29    30   ar
    11    30    32   ar
    12    32    34   ar
    13    34    33   ar
    14    33    35    1
    15    35    36    2
    16    35    38    1
    17    35    37    2
    18    33    31   ar
    19    29    31   ar
    20    28    25   ar
    21    25    22   ar
    22    18    22   ar
    23     2     1    1
    24     3     5    1
    25     5     9   ar
    26     9    20    1
    27     9    21   ar
    28    21    19   ar
    29    19    24    1
    30    19     8   ar
    31     5     8   ar
    32     6    10    1
    33    10    14   ar
    34    14    16   ar
    35    16    17    1
    36    16    15   ar
    37    15    13   ar
    38    10    13   ar
    39     6    12    2
    40     3     2    1
    41     3     4    1
    42     1    39    1
    43     1    40    1
    44     1    41    1
    45     2    42    1
    46     2    43    1
    47     3    44    1
    48     7    45    1
    49     7    46    1
    50     8    47    1
    51    14    48    1
    52    15    49    1
    53    17    50    1
    54    17    51    1
    55    17    52    1
    56    20    53    1
    57    20    54    1
    58    20    55    1
    59    22    56    1
    60    24    57    1
    61    24    58    1
    62    24    59    1
    63    25    60    1
    64    26    61    1
    65    26    62    1
    66    26    63    1
    67    27    64    1
    68    30    65    1
    69    31    66    1
    70    32    67    1
    71    34    68    1
    72    38    69    1
    73    38    70    1
    74    38    71    1
