@<TRIPOS>MOLECULE
*****
 77 80 0 0 0
SMALL
GASTEIGER

@<TRIPOS>ATOM
      1 C           7.2580   -0.4040   -5.2422 C.3     1  UNL1       -0.0653
      2 C           6.8688    1.0735   -5.2688 C.3     1  UNL1       -0.0559
      3 C           5.3590    1.3058   -5.0721 C.3     1  UNL1       -0.0515
      4 C           4.7703    0.7907   -3.7385 C.3     1  UNL1       -0.0316
      5 C           5.4014    1.4195   -2.4720 C.3     1  UNL1        0.0579
      6 N           4.8983    0.7728   -1.2237 N.3     1  UNL1       -0.1634
      7 C           5.2974    2.9424   -2.4661 C.ar    1  UNL1       -0.0184
      8 S           3.2228    1.1688   -0.7030 S.O2    1  UNL1        0.0803
      9 C           5.8425    0.9274   -0.0933 C.3     1  UNL1        0.0465
     10 C           4.0802    3.6270   -2.6604 C.ar    1  UNL1       -0.0468
     11 C           6.3807    3.8283   -2.3107 C.ar    1  UNL1       -0.0083
     12 C           2.8458    2.7618    0.0307 C.ar    1  UNL1        0.2114
     13 O           2.8459    0.0429    0.2715 O.2     1  UNL1       -0.1513
     14 O           2.2967    0.8258   -1.8775 O.2     1  UNL1       -0.1513
     15 N           3.7696    3.6688    0.4081 N.ar    1  UNL1       -0.2163
     16 C           1.5845    3.2457    0.2912 C.ar    1  UNL1        0.0507
     17 C           3.0520    4.7004    0.8967 C.ar    1  UNL1        0.0980
     18 N           1.7272    4.4654    0.8358 N.ar    1  UNL1       -0.3379
     19 C           0.6670    5.3627    1.2758 C.3     1  UNL1        0.0128
     20 C           5.6529   -0.1825    0.9216 C.ar    1  UNL1       -0.0287
     21 C           4.2027    5.0067   -2.6389 C.ar    1  UNL1       -0.0127
     22 C           7.8311    3.5194   -2.0885 C.3     1  UNL1       -0.0331
     23 S           5.8100    5.4093   -2.3936 S.2     1  UNL1       -0.0984
     24 C           5.7982   -1.5021    0.4783 C.ar    1  UNL1       -0.0565
     25 C           5.3467    0.0505    2.2822 C.ar    1  UNL1       -0.0454
     26 C           3.0821    5.9763   -2.8095 C.3     1  UNL1       -0.0334
     27 C           5.6369   -2.5782    1.3489 C.ar    1  UNL1       -0.0537
     28 C           5.1918    1.4450    2.8312 C.3     1  UNL1       -0.0394
     29 C           5.1829   -1.0431    3.1531 C.ar    1  UNL1       -0.0508
     30 C           5.3202   -2.3814    2.7116 C.ar    1  UNL1       -0.0176
     31 C           5.1351   -3.5539    3.6567 C.ar    1  UNL1       -0.0161
     32 C           5.4585   -4.8778    3.2648 C.ar    1  UNL1       -0.0539
     33 C           4.6262   -3.3774    4.9694 C.ar    1  UNL1       -0.0292
     34 C           5.2832   -5.9556    4.1358 C.ar    1  UNL1       -0.0594
     35 C           4.4524   -4.4635    5.8375 C.ar    1  UNL1        0.0884
     36 C           4.7810   -5.7515    5.4166 C.ar    1  UNL1       -0.0369
     37 S           3.7902   -4.2022    7.4866 S.O2    1  UNL1       -0.0059
     38 O           4.3860   -2.8890    8.0171 O.2     1  UNL1       -0.1696
     39 O           4.5151   -5.1739    8.4307 O.2     1  UNL1       -0.1696
     40 C           2.0303   -4.2227    7.9255 C.3     1  UNL1        0.0596
     41 H           8.3462   -0.5015   -5.4404 H       1  UNL1        0.0230
     42 H           6.7024   -0.9629   -6.0248 H       1  UNL1        0.0230
     43 H           7.0501   -0.8526   -4.2493 H       1  UNL1        0.0230
     44 H           7.4525    1.6249   -4.5036 H       1  UNL1        0.0263
     45 H           7.1519    1.4880   -6.2606 H       1  UNL1        0.0263
     46 H           5.1620    2.3959   -5.1590 H       1  UNL1        0.0266
     47 H           4.8163    0.8049   -5.9035 H       1  UNL1        0.0266
     48 H           4.8873   -0.3125   -3.6884 H       1  UNL1        0.0284
     49 H           3.6864    1.0000   -3.7744 H       1  UNL1        0.0284
     50 H           6.4629    1.1329   -2.5524 H       1  UNL1        0.0529
     51 H           5.7535    1.9434    0.3370 H       1  UNL1        0.0493
     52 H           6.8930    0.8275   -0.4430 H       1  UNL1        0.0493
     53 H           3.1297    3.1386   -2.8190 H       1  UNL1        0.0629
     54 H           0.6418    2.7499    0.0993 H       1  UNL1        0.0845
     55 H           3.4926    5.6075    1.2894 H       1  UNL1        0.1029
     56 H          -0.3295    4.9027    1.1036 H       1  UNL1        0.0456
     57 H           0.7260    6.3157    0.7092 H       1  UNL1        0.0456
     58 H           0.7827    5.5731    2.3599 H       1  UNL1        0.0456
     59 H           8.0518    2.4392   -2.0379 H       1  UNL1        0.0283
     60 H           8.1553    3.9760   -1.1305 H       1  UNL1        0.0283
     61 H           8.4275    3.9570   -2.9157 H       1  UNL1        0.0283
     62 H           6.0358   -1.7018   -0.5602 H       1  UNL1        0.0621
     63 H           3.4606    7.0180   -2.7494 H       1  UNL1        0.0283
     64 H           2.3294    5.8186   -2.0089 H       1  UNL1        0.0283
     65 H           2.6032    5.8216   -3.7987 H       1  UNL1        0.0283
     66 H           5.7551   -3.5566    0.9167 H       1  UNL1        0.0624
     67 H           6.1324    2.0161    2.6840 H       1  UNL1        0.0278
     68 H           4.9632    1.4433    3.9180 H       1  UNL1        0.0278
     69 H           4.3565    1.9577    2.3183 H       1  UNL1        0.0278
     70 H           4.9564   -0.8169    4.1800 H       1  UNL1        0.0626
     71 H           5.8581   -5.1145    2.2939 H       1  UNL1        0.0624
     72 H           4.3409   -2.4118    5.3477 H       1  UNL1        0.0643
     73 H           5.5392   -6.9569    3.8133 H       1  UNL1        0.0618
     74 H           4.6468   -6.5968    6.0794 H       1  UNL1        0.0636
     75 H           1.4945   -3.4424    7.3469 H       1  UNL1        0.0468
     76 H           1.9177   -4.0094    9.0086 H       1  UNL1        0.0468
     77 H           1.6047   -5.2238    7.7079 H       1  UNL1        0.0468
@<TRIPOS>BOND
     1    13     8    2
     2     8     6    1
     3     6     9    1
     4     9    20    1
     5    20    25   ar
     6    25    28    1
     7    25    29   ar
     8    29    30   ar
     9    30    31    1
    10    31    32   ar
    11    32    34   ar
    12    34    36   ar
    13    36    35   ar
    14    35    37    1
    15    37    38    2
    16    37    40    1
    17    37    39    2
    18    35    33   ar
    19    31    33   ar
    20    30    27   ar
    21    27    24   ar
    22    20    24   ar
    23     4     3    1
    24     3     2    1
    25     2     1    1
    26     5     7    1
    27     7    11   ar
    28    11    22    1
    29    11    23   ar
    30    23    21   ar
    31    21    26    1
    32    21    10   ar
    33     7    10   ar
    34     8    12    1
    35    12    16   ar
    36    16    18   ar
    37    18    19    1
    38    18    17   ar
    39    17    15   ar
    40    12    15   ar
    41     8    14    2
    42     5     4    1
    43     5     6    1
    44     1    41    1
    45     1    42    1
    46     1    43    1
    47     2    44    1
    48     2    45    1
    49     3    46    1
    50     3    47    1
    51     4    48    1
    52     4    49    1
    53     5    50    1
    54     9    51    1
    55     9    52    1
    56    10    53    1
    57    16    54    1
    58    17    55    1
    59    19    56    1
    60    19    57    1
    61    19    58    1
    62    22    59    1
    63    22    60    1
    64    22    61    1
    65    24    62    1
    66    26    63    1
    67    26    64    1
    68    26    65    1
    69    27    66    1
    70    28    67    1
    71    28    68    1
    72    28    69    1
    73    29    70    1
    74    32    71    1
    75    33    72    1
    76    34    73    1
    77    36    74    1
    78    40    75    1
    79    40    76    1
    80    40    77    1
