@<TRIPOS>MOLECULE
*****
 71 74 0 0 0
SMALL
GASTEIGER

@<TRIPOS>ATOM
      1 C           0.8565   -1.6595    1.4489 C.3     1  UNL1       -0.0453
      2 C           0.6115   -0.2324    1.9233 C.3     1  UNL1        0.0681
      3 S           1.8965    0.3002    3.1001 S.O2    1  UNL1       -0.0033
      4 C           1.9776    1.9286    3.8536 C.ar    1  UNL1        0.0887
      5 O           1.9663   -0.7344    4.2345 O.2     1  UNL1       -0.1694
      6 O           3.2688    0.0326    2.4617 O.2     1  UNL1       -0.1694
      7 C           1.4248    2.1439    5.1150 C.ar    1  UNL1       -0.0368
      8 C           2.5924    2.9847    3.1692 C.ar    1  UNL1       -0.0292
      9 C           1.4905    3.4066    5.6938 C.ar    1  UNL1       -0.0594
     10 C           2.6766    4.2850    3.7324 C.ar    1  UNL1       -0.0161
     11 C           2.1065    4.4634    5.0190 C.ar    1  UNL1       -0.0539
     12 C           3.3512    5.4305    2.9967 C.ar    1  UNL1       -0.0176
     13 C           3.5135    6.6981    3.5961 C.ar    1  UNL1       -0.0537
     14 C           3.8525    5.2771    1.6822 C.ar    1  UNL1       -0.0508
     15 C           4.1464    7.7427    2.9267 C.ar    1  UNL1       -0.0565
     16 C           4.4945    6.3222    0.9918 C.ar    1  UNL1       -0.0454
     17 C           4.6523    7.5815    1.6298 C.ar    1  UNL1       -0.0287
     18 C           4.9800    5.9978   -0.4027 C.3     1  UNL1       -0.0394
     19 C           5.3440    8.7872    1.0126 C.3     1  UNL1        0.0465
     20 N           6.4895    9.2356    1.8418 N.3     1  UNL1       -0.1637
     21 S           7.6639    7.8800    2.0300 S.O2    1  UNL1        0.0803
     22 C           7.1511   10.4814    1.3550 C.3     1  UNL1        0.0551
     23 C           7.2651    6.6442    3.2587 C.ar    1  UNL1        0.2114
     24 O           9.0521    8.4799    2.2897 O.2     1  UNL1       -0.1513
     25 O           7.8472    7.2725    0.6298 O.2     1  UNL1       -0.1513
     26 C           8.0113   11.0672    2.4627 C.ar    1  UNL1       -0.0187
     27 C           6.1560   11.5838    0.9331 C.3     1  UNL1       -0.0437
     28 N           7.1165    6.9117    4.5713 N.ar    1  UNL1       -0.2163
     29 C           7.0377    5.3076    3.0242 C.ar    1  UNL1        0.0507
     30 C           6.7971    5.7230    5.1232 C.ar    1  UNL1        0.0980
     31 N           6.7420    4.7390    4.2040 N.ar    1  UNL1       -0.3379
     32 C           6.4206    3.3367    4.4338 C.3     1  UNL1        0.0128
     33 C           7.4744   11.3733    3.7282 C.ar    1  UNL1       -0.0468
     34 C           9.3829   11.3684    2.3749 C.ar    1  UNL1       -0.0083
     35 C           8.4039   11.8952    4.6146 C.ar    1  UNL1       -0.0127
     36 C          10.3099   11.2017    1.2087 C.3     1  UNL1       -0.0331
     37 S           9.8949   11.9926    3.8516 S.2     1  UNL1       -0.0984
     38 C           8.1242   12.3026    6.0220 C.3     1  UNL1       -0.0334
     39 H           0.0596   -1.9556    0.7348 H       1  UNL1        0.0245
     40 H           0.8407   -2.3598    2.3105 H       1  UNL1        0.0245
     41 H           1.8385   -1.7319    0.9357 H       1  UNL1        0.0245
     42 H           0.6219    0.4496    1.0472 H       1  UNL1        0.0501
     43 H          -0.3786   -0.1783    2.4229 H       1  UNL1        0.0501
     44 H           0.9438    1.3352    5.6501 H       1  UNL1        0.0636
     45 H           2.9986    2.7486    2.2025 H       1  UNL1        0.0643
     46 H           1.0607    3.5700    6.6739 H       1  UNL1        0.0618
     47 H           2.1134    5.4077    5.5336 H       1  UNL1        0.0624
     48 H           3.1718    6.9189    4.5916 H       1  UNL1        0.0624
     49 H           3.7623    4.3444    1.1541 H       1  UNL1        0.0626
     50 H           4.2530    8.6941    3.4349 H       1  UNL1        0.0621
     51 H           5.4827    6.8169   -0.9370 H       1  UNL1        0.0278
     52 H           4.1155    5.6869   -1.0267 H       1  UNL1        0.0278
     53 H           5.7007    5.1543   -0.3507 H       1  UNL1        0.0278
     54 H           5.6856    8.6435   -0.0247 H       1  UNL1        0.0493
     55 H           4.5612    9.5719    0.9849 H       1  UNL1        0.0493
     56 H           7.7491   10.2472    0.4533 H       1  UNL1        0.0527
     57 H           5.4666   11.8429    1.7649 H       1  UNL1        0.0248
     58 H           5.5645   11.2807    0.0450 H       1  UNL1        0.0248
     59 H           6.7132   12.4982    0.6343 H       1  UNL1        0.0248
     60 H           7.0749    4.7932    2.0728 H       1  UNL1        0.0845
     61 H           6.6047    5.5832    6.1791 H       1  UNL1        0.1029
     62 H           5.5224    3.0585    3.8444 H       1  UNL1        0.0456
     63 H           6.2133    3.1557    5.5101 H       1  UNL1        0.0456
     64 H           7.2750    2.7015    4.1199 H       1  UNL1        0.0456
     65 H           6.4366   11.2119    3.9915 H       1  UNL1        0.0629
     66 H           9.8139   10.7840    0.3146 H       1  UNL1        0.0283
     67 H          11.1382   10.5211    1.4954 H       1  UNL1        0.0283
     68 H          10.7345   12.1902    0.9369 H       1  UNL1        0.0283
     69 H           9.0482   12.6853    6.5038 H       1  UNL1        0.0283
     70 H           7.7538   11.4274    6.5957 H       1  UNL1        0.0283
     71 H           7.3535   13.1012    6.0326 H       1  UNL1        0.0283
@<TRIPOS>BOND
     1    24    21    2
     2    21    20    1
     3    20    19    1
     4    19    17    1
     5    17    16   ar
     6    16    18    1
     7    16    14   ar
     8    14    12   ar
     9    12    10    1
    10    10    11   ar
    11    11     9   ar
    12     9     7   ar
    13     7     4   ar
    14     4     3    1
    15     3     5    2
    16     3     2    1
    17     2     1    1
    18     3     6    2
    19     4     8   ar
    20    10     8   ar
    21    12    13   ar
    22    13    15   ar
    23    17    15   ar
    24    20    22    1
    25    22    27    1
    26    22    26    1
    27    26    34   ar
    28    34    36    1
    29    34    37   ar
    30    37    35   ar
    31    35    38    1
    32    35    33   ar
    33    26    33   ar
    34    21    23    1
    35    23    29   ar
    36    29    31   ar
    37    31    32    1
    38    31    30   ar
    39    30    28   ar
    40    23    28   ar
    41    21    25    2
    42     1    39    1
    43     1    40    1
    44     1    41    1
    45     2    42    1
    46     2    43    1
    47     7    44    1
    48     8    45    1
    49     9    46    1
    50    11    47    1
    51    13    48    1
    52    14    49    1
    53    15    50    1
    54    18    51    1
    55    18    52    1
    56    18    53    1
    57    19    54    1
    58    19    55    1
    59    22    56    1
    60    27    57    1
    61    27    58    1
    62    27    59    1
    63    29    60    1
    64    30    61    1
    65    32    62    1
    66    32    63    1
    67    32    64    1
    68    33    65    1
    69    36    66    1
    70    36    67    1
    71    36    68    1
    72    38    69    1
    73    38    70    1
    74    38    71    1
