@<TRIPOS>MOLECULE
*****
 74 77 0 0 0
SMALL
GASTEIGER

@<TRIPOS>ATOM
      1 C           7.2019   -0.6054    1.6175 C.3     1  UNL1       -0.0652
      2 C           6.6999    0.1560    0.3939 C.3     1  UNL1       -0.0541
      3 C           5.2117   -0.1409    0.1316 C.3     1  UNL1       -0.0318
      4 C           4.6552    0.6426   -1.0931 C.3     1  UNL1        0.0579
      5 N           3.1723    0.5663   -1.2005 N.3     1  UNL1       -0.1634
      6 C           5.2690    0.2582   -2.4338 C.ar    1  UNL1       -0.0184
      7 S           2.3075    1.5769    0.0069 S.O2    1  UNL1        0.0803
      8 C           2.6348   -0.8152   -1.2422 C.3     1  UNL1        0.0465
      9 C           6.0363   -0.9020   -2.6715 C.ar    1  UNL1       -0.0468
     10 C           5.1190    1.0376   -3.5927 C.ar    1  UNL1       -0.0083
     11 C           0.7275    2.2272   -0.5191 C.ar    1  UNL1        0.2114
     12 O           3.2656    2.6983    0.4393 O.2     1  UNL1       -0.1513
     13 O           2.1957    0.7319    1.2863 O.2     1  UNL1       -0.1513
     14 N           0.5688    3.0751   -1.5545 N.ar    1  UNL1       -0.2163
     15 C          -0.4976    1.9193    0.0265 C.ar    1  UNL1        0.0507
     16 C          -0.7639    3.2737   -1.6254 C.ar    1  UNL1        0.0980
     17 N          -1.4284    2.5808   -0.6802 N.ar    1  UNL1       -0.3379
     18 C          -2.8711    2.5520   -0.4777 C.3     1  UNL1        0.0128
     19 C           1.1477   -0.8315   -1.5532 C.ar    1  UNL1       -0.0287
     20 C           6.4726   -1.0187   -3.9833 C.ar    1  UNL1       -0.0127
     21 C           4.3864    2.3376   -3.7361 C.3     1  UNL1       -0.0331
     22 S           5.9258    0.2970   -4.8683 S.2     1  UNL1       -0.0984
     23 C           0.2702   -1.3323   -0.5820 C.ar    1  UNL1       -0.0565
     24 C           0.6085   -0.3511   -2.7697 C.ar    1  UNL1       -0.0454
     25 C           7.2954   -2.1396   -4.5237 C.3     1  UNL1       -0.0334
     26 C          -1.1081   -1.3430   -0.7891 C.ar    1  UNL1       -0.0537
     27 C           1.4597    0.1857   -3.8890 C.3     1  UNL1       -0.0394
     28 C          -0.7828   -0.3660   -2.9679 C.ar    1  UNL1       -0.0508
     29 C          -1.6769   -0.8547   -1.9860 C.ar    1  UNL1       -0.0176
     30 C          -3.1780   -0.8534   -2.2051 C.ar    1  UNL1       -0.0161
     31 C          -4.0783   -1.1821   -1.1600 C.ar    1  UNL1       -0.0539
     32 C          -3.7457   -0.5210   -3.4621 C.ar    1  UNL1       -0.0292
     33 C          -5.4600   -1.1785   -1.3644 C.ar    1  UNL1       -0.0594
     34 C          -5.1325   -0.5195   -3.6600 C.ar    1  UNL1        0.0884
     35 C          -5.9868   -0.8506   -2.6090 C.ar    1  UNL1       -0.0369
     36 S          -5.8072   -0.1058   -5.2723 S.O2    1  UNL1       -0.0059
     37 O          -5.0140    1.0993   -5.8006 O.2     1  UNL1       -0.1696
     38 O          -7.1548    0.5962   -5.0436 O.2     1  UNL1       -0.1696
     39 C          -6.0188   -1.2671   -6.6496 C.3     1  UNL1        0.0596
     40 H           8.2724   -0.3669    1.7914 H       1  UNL1        0.0230
     41 H           7.1026   -1.7001    1.4564 H       1  UNL1        0.0230
     42 H           6.6219   -0.3145    2.5191 H       1  UNL1        0.0230
     43 H           6.8337    1.2453    0.5716 H       1  UNL1        0.0263
     44 H           7.3251   -0.1309   -0.4747 H       1  UNL1        0.0263
     45 H           4.6595    0.1766    1.0396 H       1  UNL1        0.0284
     46 H           5.0616   -1.2333    0.0038 H       1  UNL1        0.0284
     47 H           4.9542    1.6986   -0.9285 H       1  UNL1        0.0529
     48 H           2.8161   -1.3099   -0.2646 H       1  UNL1        0.0493
     49 H           3.1597   -1.4178   -2.0137 H       1  UNL1        0.0493
     50 H           6.2679   -1.6479   -1.9244 H       1  UNL1        0.0629
     51 H          -0.6955    1.2582    0.8604 H       1  UNL1        0.0845
     52 H          -1.2394    3.9095   -2.3610 H       1  UNL1        0.1029
     53 H          -3.1320    1.8865    0.3728 H       1  UNL1        0.0456
     54 H          -3.3684    2.1711   -1.3947 H       1  UNL1        0.0456
     55 H          -3.2384    3.5767   -0.2600 H       1  UNL1        0.0456
     56 H           3.9158    2.6600   -2.7865 H       1  UNL1        0.0283
     57 H           3.5930    2.2337   -4.5040 H       1  UNL1        0.0283
     58 H           5.0978    3.1243   -4.0617 H       1  UNL1        0.0283
     59 H           0.6516   -1.7105    0.3587 H       1  UNL1        0.0621
     60 H           7.5005   -1.9822   -5.6033 H       1  UNL1        0.0283
     61 H           6.7492   -3.0974   -4.3960 H       1  UNL1        0.0283
     62 H           8.2597   -2.1910   -3.9765 H       1  UNL1        0.0283
     63 H          -1.7016   -1.7444    0.0135 H       1  UNL1        0.0624
     64 H           2.5386    0.1295   -3.6748 H       1  UNL1        0.0278
     65 H           1.1931    1.2458   -4.0842 H       1  UNL1        0.0278
     66 H           1.2776   -0.4083   -4.8092 H       1  UNL1        0.0278
     67 H          -1.1363    0.0258   -3.9060 H       1  UNL1        0.0626
     68 H          -3.7490   -1.4386   -0.1683 H       1  UNL1        0.0624
     69 H          -3.1417   -0.2681   -4.3152 H       1  UNL1        0.0643
     70 H          -6.1264   -1.4321   -0.5497 H       1  UNL1        0.0618
     71 H          -7.0597   -0.8555   -2.7530 H       1  UNL1        0.0636
     72 H          -5.0301   -1.6714   -6.9493 H       1  UNL1        0.0468
     73 H          -6.4688   -0.7362   -7.5137 H       1  UNL1        0.0468
     74 H          -6.6941   -2.0910   -6.3403 H       1  UNL1        0.0468
@<TRIPOS>BOND
     1    12     7    2
     2     7     5    1
     3     5     8    1
     4     8    19    1
     5    19    24   ar
     6    24    27    1
     7    24    28   ar
     8    28    29   ar
     9    29    30    1
    10    30    31   ar
    11    31    33   ar
    12    33    35   ar
    13    35    34   ar
    14    34    36    1
    15    36    37    2
    16    36    39    1
    17    36    38    2
    18    34    32   ar
    19    30    32   ar
    20    29    26   ar
    21    26    23   ar
    22    19    23   ar
    23     3     2    1
    24     2     1    1
    25     4     6    1
    26     6    10   ar
    27    10    21    1
    28    10    22   ar
    29    22    20   ar
    30    20    25    1
    31    20     9   ar
    32     6     9   ar
    33     7    11    1
    34    11    15   ar
    35    15    17   ar
    36    17    18    1
    37    17    16   ar
    38    16    14   ar
    39    11    14   ar
    40     7    13    2
    41     4     3    1
    42     4     5    1
    43     1    40    1
    44     1    41    1
    45     1    42    1
    46     2    43    1
    47     2    44    1
    48     3    45    1
    49     3    46    1
    50     4    47    1
    51     8    48    1
    52     8    49    1
    53     9    50    1
    54    15    51    1
    55    16    52    1
    56    18    53    1
    57    18    54    1
    58    18    55    1
    59    21    56    1
    60    21    57    1
    61    21    58    1
    62    23    59    1
    63    25    60    1
    64    25    61    1
    65    25    62    1
    66    26    63    1
    67    27    64    1
    68    27    65    1
    69    27    66    1
    70    28    67    1
    71    31    68    1
    72    32    69    1
    73    33    70    1
    74    35    71    1
    75    39    72    1
    76    39    73    1
    77    39    74    1
