@<TRIPOS>MOLECULE
*****
 77 80 0 0 0
SMALL
GASTEIGER

@<TRIPOS>ATOM
      1 C           6.1523    0.2575   -3.0018 C.3     1  UNL1       -0.0652
      2 C           6.1786    0.7331   -1.5523 C.3     1  UNL1       -0.0541
      3 C           4.8052    0.5478   -0.8866 C.3     1  UNL1       -0.0318
      4 C           4.8077    0.9845    0.5944 C.3     1  UNL1        0.0579
      5 N           3.5475    0.5888    1.2832 N.3     1  UNL1       -0.1634
      6 C           5.1699    2.4586    0.7653 C.ar    1  UNL1       -0.0184
      7 S           2.0393    1.4191    0.7593 S.O2    1  UNL1        0.0803
      8 C           3.7035    0.5521    2.7557 C.3     1  UNL1        0.0465
      9 C           4.5233    3.4929    0.0579 C.ar    1  UNL1       -0.0468
     10 C           6.1996    2.9495    1.5913 C.ar    1  UNL1       -0.0083
     11 C           1.5191    1.3401   -0.9480 C.ar    1  UNL1        0.2114
     12 O           2.0500    2.8345    1.3579 O.2     1  UNL1       -0.1513
     13 O           0.9204    0.7697    1.5853 O.2     1  UNL1       -0.1513
     14 N           1.4560    0.1959   -1.6575 N.ar    1  UNL1       -0.2163
     15 C           1.0963    2.3962   -1.7219 C.ar    1  UNL1        0.0507
     16 C           0.9960    0.5745   -2.8673 C.ar    1  UNL1        0.0980
     17 N           0.7690    1.9015   -2.9268 N.ar    1  UNL1       -0.3379
     18 C           0.2608    2.6550   -4.0658 C.3     1  UNL1        0.0128
     19 C           2.6935   -0.3821    3.3877 C.ar    1  UNL1       -0.0287
     20 C           5.0256    4.7558    0.3274 C.ar    1  UNL1       -0.0127
     21 C           7.1248    2.1965    2.5000 C.3     1  UNL1       -0.0331
     22 S           6.2719    4.6237    1.4388 S.2     1  UNL1       -0.0984
     23 C           1.8018    0.1342    4.3372 C.ar    1  UNL1       -0.0565
     24 C           2.6082   -1.7543    3.0454 C.ar    1  UNL1       -0.0454
     25 C           4.5442    6.0276   -0.2858 C.3     1  UNL1       -0.0334
     26 C           0.8307   -0.6745    4.9278 C.ar    1  UNL1       -0.0537
     27 C           3.5344   -2.4234    2.0580 C.3     1  UNL1       -0.0394
     28 C           1.6187   -2.5550    3.6392 C.ar    1  UNL1       -0.0508
     29 C           0.7059   -2.0397    4.5877 C.ar    1  UNL1       -0.0176
     30 C          -0.3625   -2.9150    5.2085 C.ar    1  UNL1       -0.0161
     31 C          -0.6701   -4.1932    4.6781 C.ar    1  UNL1       -0.0539
     32 C          -1.1021   -2.4890    6.3398 C.ar    1  UNL1       -0.0292
     33 C          -1.6634   -4.9932    5.2470 C.ar    1  UNL1       -0.0594
     34 C          -2.0915   -3.3003    6.9110 C.ar    1  UNL1        0.0887
     35 C          -2.3725   -4.5505    6.3589 C.ar    1  UNL1       -0.0368
     36 S          -2.9968   -2.7246    8.3509 S.O2    1  UNL1       -0.0033
     37 C          -4.4006   -1.5646    8.3025 C.3     1  UNL1        0.0681
     38 O          -1.9561   -2.1692    9.3361 O.2     1  UNL1       -0.1694
     39 O          -3.4278   -3.9648    9.1501 O.2     1  UNL1       -0.1694
     40 C          -4.9199   -1.2731    9.7050 C.3     1  UNL1       -0.0453
     41 H           7.1544    0.3995   -3.4584 H       1  UNL1        0.0230
     42 H           5.4084    0.8408   -3.5853 H       1  UNL1        0.0230
     43 H           5.8893   -0.8208   -3.0489 H       1  UNL1        0.0230
     44 H           6.9449    0.1488   -0.9979 H       1  UNL1        0.0263
     45 H           6.4693    1.8055   -1.5372 H       1  UNL1        0.0263
     46 H           4.5337   -0.5302   -0.9324 H       1  UNL1        0.0284
     47 H           4.0550    1.1216   -1.4618 H       1  UNL1        0.0284
     48 H           5.6095    0.3651    1.0389 H       1  UNL1        0.0529
     49 H           3.6365    1.5842    3.1653 H       1  UNL1        0.0493
     50 H           4.7025    0.1574    3.0402 H       1  UNL1        0.0493
     51 H           3.7204    3.3328   -0.6471 H       1  UNL1        0.0629
     52 H           1.0252    3.4361   -1.4301 H       1  UNL1        0.0845
     53 H           0.8251   -0.1120   -3.6863 H       1  UNL1        0.1029
     54 H          -0.6922    3.1524   -3.7876 H       1  UNL1        0.0456
     55 H           0.0730    1.9787   -4.9272 H       1  UNL1        0.0456
     56 H           1.0026    3.4239   -4.3664 H       1  UNL1        0.0456
     57 H           6.9489    1.1070    2.5081 H       1  UNL1        0.0283
     58 H           6.9932    2.5680    3.5376 H       1  UNL1        0.0283
     59 H           8.1733    2.3768    2.1847 H       1  UNL1        0.0283
     60 H           1.8474    1.1797    4.6176 H       1  UNL1        0.0621
     61 H           5.1270    6.8887    0.1031 H       1  UNL1        0.0283
     62 H           3.4716    6.1764   -0.0431 H       1  UNL1        0.0283
     63 H           4.6676    5.9780   -1.3880 H       1  UNL1        0.0283
     64 H           0.1742   -0.1941    5.6337 H       1  UNL1        0.0624
     65 H           4.3137   -1.7566    1.6489 H       1  UNL1        0.0278
     66 H           2.9429   -2.8246    1.2081 H       1  UNL1        0.0278
     67 H           4.0591   -3.2640    2.5589 H       1  UNL1        0.0278
     68 H           1.5954   -3.5917    3.3467 H       1  UNL1        0.0626
     69 H          -0.1726   -4.5965    3.8123 H       1  UNL1        0.0624
     70 H          -0.9239   -1.5368    6.8102 H       1  UNL1        0.0643
     71 H          -1.8855   -5.9628    4.8195 H       1  UNL1        0.0618
     72 H          -3.1391   -5.1825    6.7882 H       1  UNL1        0.0636
     73 H          -5.2164   -2.0109    7.6957 H       1  UNL1        0.0501
     74 H          -4.0660   -0.6156    7.8331 H       1  UNL1        0.0501
     75 H          -5.2688   -2.2097   10.1888 H       1  UNL1        0.0245
     76 H          -5.7720   -0.5640    9.6461 H       1  UNL1        0.0245
     77 H          -4.1196   -0.8170   10.3251 H       1  UNL1        0.0245
@<TRIPOS>BOND
     1    12     7    2
     2     7     5    1
     3     5     8    1
     4     8    19    1
     5    19    24   ar
     6    24    27    1
     7    24    28   ar
     8    28    29   ar
     9    29    30    1
    10    30    31   ar
    11    31    33   ar
    12    33    35   ar
    13    35    34   ar
    14    34    36    1
    15    36    38    2
    16    36    37    1
    17    37    40    1
    18    36    39    2
    19    34    32   ar
    20    30    32   ar
    21    29    26   ar
    22    26    23   ar
    23    19    23   ar
    24     3     2    1
    25     2     1    1
    26     4     6    1
    27     6    10   ar
    28    10    21    1
    29    10    22   ar
    30    22    20   ar
    31    20    25    1
    32    20     9   ar
    33     6     9   ar
    34     7    11    1
    35    11    15   ar
    36    15    17   ar
    37    17    18    1
    38    17    16   ar
    39    16    14   ar
    40    11    14   ar
    41     7    13    2
    42     4     3    1
    43     4     5    1
    44     1    41    1
    45     1    42    1
    46     1    43    1
    47     2    44    1
    48     2    45    1
    49     3    46    1
    50     3    47    1
    51     4    48    1
    52     8    49    1
    53     8    50    1
    54     9    51    1
    55    15    52    1
    56    16    53    1
    57    18    54    1
    58    18    55    1
    59    18    56    1
    60    21    57    1
    61    21    58    1
    62    21    59    1
    63    23    60    1
    64    25    61    1
    65    25    62    1
    66    25    63    1
    67    26    64    1
    68    27    65    1
    69    27    66    1
    70    27    67    1
    71    28    68    1
    72    31    69    1
    73    32    70    1
    74    33    71    1
    75    35    72    1
    76    37    73    1
    77    37    74    1
    78    40    75    1
    79    40    76    1
    80    40    77    1
