@<TRIPOS>MOLECULE
*****
 74 77 0 0 0
SMALL
GASTEIGER

@<TRIPOS>ATOM
      1 C           0.8753   -2.7584   -0.6933 C.3     1  UNL1       -0.0635
      2 C           2.0932   -2.2561    0.0939 C.3     1  UNL1       -0.0344
      3 C           3.1484   -1.3845   -0.6730 C.3     1  UNL1        0.0577
      4 N           2.8176    0.0722   -0.7659 N.3     1  UNL1       -0.1634
      5 C           3.6359   -2.0265   -1.9856 C.ar    1  UNL1       -0.0184
      6 S           1.2058    0.4840   -1.4360 S.O2    1  UNL1        0.0803
      7 C           2.9990    0.8128    0.5049 C.3     1  UNL1        0.0465
      8 C           3.9537   -3.4066   -2.0071 C.ar    1  UNL1       -0.0468
      9 C           3.8815   -1.4317   -3.2526 C.ar    1  UNL1       -0.0083
     10 C          -0.2320    0.5425   -0.3643 C.ar    1  UNL1        0.2114
     11 O           1.0027   -0.3781   -2.6914 O.2     1  UNL1       -0.1513
     12 O           1.4195    1.8676   -2.0690 O.2     1  UNL1       -0.1513
     13 N          -0.2555    0.1086    0.9117 N.ar    1  UNL1       -0.2163
     14 C          -1.4710    1.0282   -0.7144 C.ar    1  UNL1        0.0507
     15 C          -1.5188    0.3385    1.3242 C.ar    1  UNL1        0.0980
     16 N          -2.2717    0.8946    0.3558 N.ar    1  UNL1       -0.3379
     17 C          -3.6754    1.2722    0.4581 C.3     1  UNL1        0.0128
     18 C           4.4399    0.8021    0.9817 C.ar    1  UNL1       -0.0287
     19 C           4.3860   -3.8815   -3.2335 C.ar    1  UNL1       -0.0127
     20 C           3.7916   -0.0126   -3.7226 C.3     1  UNL1       -0.0331
     21 S           4.4133   -2.6188   -4.3208 S.2     1  UNL1       -0.0984
     22 C           4.7309    0.1730    2.1984 C.ar    1  UNL1       -0.0565
     23 C           5.4975    1.3941    0.2527 C.ar    1  UNL1       -0.0454
     24 C           4.7753   -5.2876   -3.5468 C.3     1  UNL1       -0.0334
     25 C           6.0343    0.1135    2.6876 C.ar    1  UNL1       -0.0537
     26 C           5.2897    2.1245   -1.0494 C.3     1  UNL1       -0.0394
     27 C           6.8099    1.3245    0.7532 C.ar    1  UNL1       -0.0508
     28 C           7.1157    0.6844    1.9792 C.ar    1  UNL1       -0.0176
     29 C           8.5366    0.6168    2.5132 C.ar    1  UNL1       -0.0161
     30 C           8.8239    0.0591    3.7858 C.ar    1  UNL1       -0.0539
     31 C           9.6384    1.1081    1.7651 C.ar    1  UNL1       -0.0292
     32 C          10.1305    0.0010    4.2759 C.ar    1  UNL1       -0.0594
     33 C          10.9473    1.0425    2.2618 C.ar    1  UNL1        0.0887
     34 C          11.1889    0.4908    3.5191 C.ar    1  UNL1       -0.0368
     35 S          12.3137    1.6779    1.2844 S.O2    1  UNL1       -0.0033
     36 C          12.8641    3.4147    1.2815 C.3     1  UNL1        0.0681
     37 O          12.0615    1.2561   -0.1719 O.2     1  UNL1       -0.1694
     38 O          13.5332    0.7876    1.5724 O.2     1  UNL1       -0.1694
     39 C          14.0855    3.6037    0.3905 C.3     1  UNL1       -0.0453
     40 H           0.2876   -3.4402   -0.0430 H       1  UNL1        0.0230
     41 H           1.1917   -3.3304   -1.5893 H       1  UNL1        0.0230
     42 H           0.1872   -1.9620   -1.0030 H       1  UNL1        0.0230
     43 H           2.6086   -3.1779    0.4360 H       1  UNL1        0.0281
     44 H           1.7652   -1.7504    1.0227 H       1  UNL1        0.0281
     45 H           4.0484   -1.4678   -0.0287 H       1  UNL1        0.0529
     46 H           2.3285    0.3912    1.2800 H       1  UNL1        0.0493
     47 H           2.6973    1.8756    0.3811 H       1  UNL1        0.0493
     48 H           3.8693   -4.0599   -1.1508 H       1  UNL1        0.0629
     49 H          -1.7641    1.4435   -1.6702 H       1  UNL1        0.0845
     50 H          -1.8804    0.1020    2.3167 H       1  UNL1        0.1029
     51 H          -4.0329    1.7078   -0.4994 H       1  UNL1        0.0456
     52 H          -3.8015    2.0250    1.2644 H       1  UNL1        0.0456
     53 H          -4.2865    0.3760    0.6952 H       1  UNL1        0.0456
     54 H           3.5128    0.7012   -2.9462 H       1  UNL1        0.0283
     55 H           3.0587    0.0565   -4.5530 H       1  UNL1        0.0283
     56 H           4.7864    0.3029   -4.1002 H       1  UNL1        0.0283
     57 H           3.9404   -0.2881    2.7785 H       1  UNL1        0.0621
     58 H           4.1210   -5.6821   -4.3518 H       1  UNL1        0.0283
     59 H           4.6708   -5.9328   -2.6491 H       1  UNL1        0.0283
     60 H           5.8311   -5.3126   -3.8877 H       1  UNL1        0.0283
     61 H           6.1584   -0.3974    3.6258 H       1  UNL1        0.0624
     62 H           4.2307    2.1827   -1.3557 H       1  UNL1        0.0278
     63 H           5.8635    1.6203   -1.8554 H       1  UNL1        0.0278
     64 H           5.6544    3.1683   -0.9472 H       1  UNL1        0.0278
     65 H           7.5725    1.7953    0.1577 H       1  UNL1        0.0626
     66 H           8.0628   -0.3365    4.4345 H       1  UNL1        0.0624
     67 H           9.5213    1.5448    0.7898 H       1  UNL1        0.0643
     68 H          10.3219   -0.4267    5.2519 H       1  UNL1        0.0618
     69 H          12.1958    0.4401    3.9132 H       1  UNL1        0.0636
     70 H          13.1206    3.7127    2.3199 H       1  UNL1        0.0501
     71 H          12.0364    4.0531    0.9069 H       1  UNL1        0.0501
     72 H          14.9298    2.9823    0.7567 H       1  UNL1        0.0245
     73 H          14.3958    4.6696    0.4066 H       1  UNL1        0.0245
     74 H          13.8468    3.3178   -0.6556 H       1  UNL1        0.0245
@<TRIPOS>BOND
     1    11     6    2
     2     6     4    1
     3     4     7    1
     4     7    18    1
     5    18    23   ar
     6    23    26    1
     7    23    27   ar
     8    27    28   ar
     9    28    29    1
    10    29    30   ar
    11    30    32   ar
    12    32    34   ar
    13    34    33   ar
    14    33    35    1
    15    35    37    2
    16    35    36    1
    17    36    39    1
    18    35    38    2
    19    33    31   ar
    20    29    31   ar
    21    28    25   ar
    22    25    22   ar
    23    18    22   ar
    24     2     1    1
    25     3     5    1
    26     5     9   ar
    27     9    20    1
    28     9    21   ar
    29    21    19   ar
    30    19    24    1
    31    19     8   ar
    32     5     8   ar
    33     6    10    1
    34    10    14   ar
    35    14    16   ar
    36    16    17    1
    37    16    15   ar
    38    15    13   ar
    39    10    13   ar
    40     6    12    2
    41     3     2    1
    42     3     4    1
    43     1    40    1
    44     1    41    1
    45     1    42    1
    46     2    43    1
    47     2    44    1
    48     3    45    1
    49     7    46    1
    50     7    47    1
    51     8    48    1
    52    14    49    1
    53    15    50    1
    54    17    51    1
    55    17    52    1
    56    17    53    1
    57    20    54    1
    58    20    55    1
    59    20    56    1
    60    22    57    1
    61    24    58    1
    62    24    59    1
    63    24    60    1
    64    25    61    1
    65    26    62    1
    66    26    63    1
    67    26    64    1
    68    27    65    1
    69    30    66    1
    70    31    67    1
    71    32    68    1
    72    34    69    1
    73    36    70    1
    74    36    71    1
    75    39    72    1
    76    39    73    1
    77    39    74    1
