MODEL 1
REMARK VINA RESULT:   -12.003      0.000      0.000
REMARK INTER + INTRA:         -18.925
REMARK INTER:                 -17.245
REMARK INTRA:                  -1.680
REMARK UNBOUND:                 0.095
REMARK  10 active torsions:
REMARK  status: ('A' for Active; 'I' for Inactive)
REMARK    1  A    between atoms: C_3  and  C_2 
REMARK    2  A    between atoms: C_4  and  C_3 
REMARK    3  A    between atoms: C_4  and  C_6 
REMARK    4  A    between atoms: C_4  and  N_5 
REMARK    5  A    between atoms: S_7  and  N_5 
REMARK    6  A    between atoms: N_5  and  C_8 
REMARK    7  A    between atoms: S_7  and  C_11 
REMARK    8  A    between atoms: C_8  and  C_19 
REMARK    9  A    between atoms: C_29  and  C_30 
REMARK   10  A    between atoms: C_34  and  S_36 
ROOT
ATOM      1  N   UNL d   1      17.880  -4.412  60.347  0.00  0.00    -0.192 NA
ENDROOT
BRANCH   1   2
ATOM      2  S   UNL d   1      17.905  -6.198  60.564  0.00  0.00     0.263 S 
ATOM      3  O   UNL d   1      16.456  -6.657  60.761  0.00  0.00    -0.204 OA
ATOM      4  O   UNL d   1      18.517  -6.462  61.949  0.00  0.00    -0.204 OA
BRANCH   2   5
ATOM      5  C   UNL d   1      18.692  -7.151  59.271  0.00  0.00     0.183 A 
ATOM      6  C   UNL d   1      19.987  -7.009  58.828  0.00  0.00     0.136 A 
ATOM      7  N   UNL d   1      20.166  -7.885  57.827  0.00  0.00    -0.353 N 
ATOM      8  C   UNL d   1      21.383  -8.076  57.048  0.00  0.00     0.156 C 
ATOM      9  C   UNL d   1      18.997  -8.541  57.683  0.00  0.00     0.210 A 
ATOM     10  N   UNL d   1      18.066  -8.110  58.559  0.00  0.00    -0.229 NA
ENDBRANCH   2   5
ENDBRANCH   1   2
BRANCH   1  11
ATOM     11  C   UNL d   1      17.209  -4.042  59.082  0.00  0.00     0.147 C 
BRANCH  11  12
ATOM     12  C   UNL d   1      15.770  -3.643  59.332  0.00  0.00    -0.038 A 
ATOM     13  C   UNL d   1      15.324  -2.301  59.311  0.00  0.00    -0.054 A 
ATOM     14  C   UNL d   1      16.272  -1.155  59.057  0.00  0.00     0.049 C 
ATOM     15  C   UNL d   1      13.963  -2.020  59.527  0.00  0.00     0.019 A 
ATOM     16  C   UNL d   1      13.014  -3.041  59.771  0.00  0.00    -0.025 A 
ATOM     17  C   UNL d   1      13.496  -4.370  59.803  0.00  0.00     0.013 A 
ATOM     18  C   UNL d   1      14.842  -4.660  59.588  0.00  0.00     0.010 A 
BRANCH  16  19
ATOM     19  C   UNL d   1      11.546  -2.727  59.989  0.00  0.00    -0.025 A 
ATOM     20  C   UNL d   1      10.657  -3.683  60.545  0.00  0.00     0.012 A 
ATOM     21  C   UNL d   1       9.306  -3.388  60.745  0.00  0.00     0.002 A 
ATOM     22  C   UNL d   1       8.800  -2.139  60.400  0.00  0.00     0.023 A 
ATOM     23  C   UNL d   1       9.644  -1.174  59.854  0.00  0.00     0.059 A 
ATOM     24  C   UNL d   1      11.000  -1.463  59.649  0.00  0.00     0.035 A 
BRANCH  23  25
ATOM     25  S   UNL d   1       8.988   0.435  59.399  0.00  0.00     0.171 S 
ATOM     26  O   UNL d   1       9.555   1.459  60.396  0.00  0.00    -0.223 OA
ATOM     27  C   UNL d   1       9.073   1.176  57.745  0.00  0.00     0.167 C 
ATOM     28  O   UNL d   1       7.519   0.475  59.849  0.00  0.00    -0.223 OA
ENDBRANCH  23  25
ENDBRANCH  16  19
ENDBRANCH  11  12
ENDBRANCH   1  11
BRANCH   1  29
ATOM     29  C   UNL d   1      19.174  -3.712  60.577  0.00  0.00     0.108 C 
BRANCH  29  30
ATOM     30  C   UNL d   1      19.280  -3.071  61.973  0.00  0.00    -0.026 A 
ATOM     31  C   UNL d   1      18.341  -2.296  62.708  0.00  0.00    -0.013 A 
ATOM     32  C   UNL d   1      16.941  -1.859  62.402  0.00  0.00     0.057 C 
ATOM     33  S   UNL d   1      19.037  -1.862  64.179  0.00  0.00    -0.100 SA
ATOM     34  C   UNL d   1      20.505  -2.612  63.929  0.00  0.00    -0.020 A 
ATOM     35  C   UNL d   1      21.652  -2.617  64.884  0.00  0.00     0.056 C 
ATOM     36  C   UNL d   1      20.488  -3.223  62.689  0.00  0.00     0.024 A 
ENDBRANCH  29  30
BRANCH  29  37
ATOM     37  C   UNL d   1      19.552  -2.874  59.330  0.00  0.00     0.025 C 
BRANCH  37  38
ATOM     38  C   UNL d   1      19.568  -1.344  59.544  0.00  0.00    -0.003 C 
ATOM     39  C   UNL d   1      19.990  -0.552  58.306  0.00  0.00     0.005 C 
ENDBRANCH  37  38
ENDBRANCH  29  37
ENDBRANCH   1  29
TORSDOF 10
ENDMDL
MODEL 2
REMARK VINA RESULT:   -11.085      2.312      4.430
REMARK INTER + INTRA:         -17.471
REMARK INTER:                 -17.743
REMARK INTRA:                   0.273
REMARK UNBOUND:                 0.095
REMARK  10 active torsions:
REMARK  status: ('A' for Active; 'I' for Inactive)
REMARK    1  A    between atoms: C_3  and  C_2 
REMARK    2  A    between atoms: C_4  and  C_3 
REMARK    3  A    between atoms: C_4  and  C_6 
REMARK    4  A    between atoms: C_4  and  N_5 
REMARK    5  A    between atoms: S_7  and  N_5 
REMARK    6  A    between atoms: N_5  and  C_8 
REMARK    7  A    between atoms: S_7  and  C_11 
REMARK    8  A    between atoms: C_8  and  C_19 
REMARK    9  A    between atoms: C_29  and  C_30 
REMARK   10  A    between atoms: C_34  and  S_36 
ROOT
ATOM      1  N   UNL d   1      17.468  -2.556  60.163  0.00  0.00    -0.192 NA
ENDROOT
BRANCH   1   2
ATOM      2  S   UNL d   1      18.017  -1.665  61.625  0.00  0.00     0.263 S 
ATOM      3  O   UNL d   1      16.791  -1.449  62.520  0.00  0.00    -0.204 OA
ATOM      4  O   UNL d   1      18.339  -0.233  61.171  0.00  0.00    -0.204 OA
BRANCH   2   5
ATOM      5  C   UNL d   1      19.350  -2.406  62.561  0.00  0.00     0.183 A 
ATOM      6  C   UNL d   1      19.777  -2.023  63.812  0.00  0.00     0.136 A 
ATOM      7  N   UNL d   1      20.818  -2.806  64.136  0.00  0.00    -0.353 N 
ATOM      8  C   UNL d   1      21.597  -2.747  65.367  0.00  0.00     0.156 C 
ATOM      9  C   UNL d   1      21.002  -3.643  63.096  0.00  0.00     0.210 A 
ATOM     10  N   UNL d   1      20.112  -3.421  62.107  0.00  0.00    -0.229 NA
ENDBRANCH   2   5
ENDBRANCH   1   2
BRANCH   1  11
ATOM     11  C   UNL d   1      16.698  -3.763  60.536  0.00  0.00     0.147 C 
BRANCH  11  12
ATOM     12  C   UNL d   1      15.214  -3.541  60.327  0.00  0.00    -0.038 A 
ATOM     13  C   UNL d   1      14.226  -4.456  60.760  0.00  0.00    -0.054 A 
ATOM     14  C   UNL d   1      14.591  -5.747  61.450  0.00  0.00     0.049 C 
ATOM     15  C   UNL d   1      12.868  -4.160  60.550  0.00  0.00     0.019 A 
ATOM     16  C   UNL d   1      12.449  -2.969  59.910  0.00  0.00    -0.025 A 
ATOM     17  C   UNL d   1      13.462  -2.085  59.473  0.00  0.00     0.013 A 
ATOM     18  C   UNL d   1      14.811  -2.367  59.679  0.00  0.00     0.010 A 
BRANCH  16  19
ATOM     19  C   UNL d   1      10.980  -2.653  59.701  0.00  0.00    -0.025 A 
ATOM     20  C   UNL d   1       9.997  -3.676  59.676  0.00  0.00     0.012 A 
ATOM     21  C   UNL d   1       8.645  -3.380  59.486  0.00  0.00     0.002 A 
ATOM     22  C   UNL d   1       8.230  -2.063  59.315  0.00  0.00     0.023 A 
ATOM     23  C   UNL d   1       9.167  -1.031  59.337  0.00  0.00     0.059 A 
ATOM     24  C   UNL d   1      10.525  -1.321  59.525  0.00  0.00     0.035 A 
BRANCH  23  25
ATOM     25  S   UNL d   1       8.633   0.668  59.106  0.00  0.00     0.171 S 
ATOM     26  O   UNL d   1       9.374   1.526  60.144  0.00  0.00    -0.223 OA
ATOM     27  C   UNL d   1       8.653   1.572  57.534  0.00  0.00     0.167 C 
ATOM     28  O   UNL d   1       7.217   0.787  59.690  0.00  0.00    -0.223 OA
ENDBRANCH  23  25
ENDBRANCH  16  19
ENDBRANCH  11  12
ENDBRANCH   1  11
BRANCH   1  29
ATOM     29  C   UNL d   1      18.504  -2.794  59.120  0.00  0.00     0.108 C 
BRANCH  29  30
ATOM     30  C   UNL d   1      18.805  -4.286  58.889  0.00  0.00    -0.026 A 
ATOM     31  C   UNL d   1      19.091  -4.997  57.692  0.00  0.00    -0.013 A 
ATOM     32  C   UNL d   1      19.223  -4.553  56.267  0.00  0.00     0.057 C 
ATOM     33  S   UNL d   1      19.322  -6.622  58.073  0.00  0.00    -0.100 SA
ATOM     34  C   UNL d   1      19.063  -6.475  59.714  0.00  0.00    -0.020 A 
ATOM     35  C   UNL d   1      19.110  -7.591  60.704  0.00  0.00     0.056 C 
ATOM     36  C   UNL d   1      18.792  -5.151  60.006  0.00  0.00     0.024 A 
ENDBRANCH  29  30
BRANCH  29  37
ATOM     37  C   UNL d   1      19.683  -1.806  59.310  0.00  0.00     0.025 C 
BRANCH  37  38
ATOM     38  C   UNL d   1      19.814  -0.719  58.220  0.00  0.00    -0.003 C 
ATOM     39  C   UNL d   1      18.473  -0.193  57.709  0.00  0.00     0.005 C 
ENDBRANCH  37  38
ENDBRANCH  29  37
ENDBRANCH   1  29
TORSDOF 10
ENDMDL
MODEL 3
REMARK VINA RESULT:   -10.964      2.360      5.415
REMARK INTER + INTRA:         -17.278
REMARK INTER:                 -15.780
REMARK INTRA:                  -1.498
REMARK UNBOUND:                 0.095
REMARK  10 active torsions:
REMARK  status: ('A' for Active; 'I' for Inactive)
REMARK    1  A    between atoms: C_3  and  C_2 
REMARK    2  A    between atoms: C_4  and  C_3 
REMARK    3  A    between atoms: C_4  and  C_6 
REMARK    4  A    between atoms: C_4  and  N_5 
REMARK    5  A    between atoms: S_7  and  N_5 
REMARK    6  A    between atoms: N_5  and  C_8 
REMARK    7  A    between atoms: S_7  and  C_11 
REMARK    8  A    between atoms: C_8  and  C_19 
REMARK    9  A    between atoms: C_29  and  C_30 
REMARK   10  A    between atoms: C_34  and  S_36 
ROOT
ATOM      1  N   UNL d   1      18.039  -5.595  59.775  0.00  0.00    -0.192 NA
ENDROOT
BRANCH   1   2
ATOM      2  S   UNL d   1      18.392  -4.220  60.879  0.00  0.00     0.263 S 
ATOM      3  O   UNL d   1      19.836  -4.382  61.367  0.00  0.00    -0.204 OA
ATOM      4  O   UNL d   1      17.589  -4.472  62.164  0.00  0.00    -0.204 OA
BRANCH   2   5
ATOM      5  C   UNL d   1      18.137  -2.576  60.219  0.00  0.00     0.183 A 
ATOM      6  C   UNL d   1      18.472  -2.145  58.956  0.00  0.00     0.136 A 
ATOM      7  N   UNL d   1      18.149  -0.845  58.878  0.00  0.00    -0.353 N 
ATOM      8  C   UNL d   1      18.341   0.029  57.727  0.00  0.00     0.156 C 
ATOM      9  C   UNL d   1      17.626  -0.512  60.075  0.00  0.00     0.210 A 
ATOM     10  N   UNL d   1      17.605  -1.559  60.925  0.00  0.00    -0.229 NA
ENDBRANCH   2   5
ENDBRANCH   1   2
BRANCH   1  11
ATOM     11  C   UNL d   1      16.707  -6.172  60.057  0.00  0.00     0.147 C 
BRANCH  11  12
ATOM     12  C   UNL d   1      15.629  -5.112  59.961  0.00  0.00    -0.038 A 
ATOM     13  C   UNL d   1      14.574  -4.994  60.896  0.00  0.00    -0.054 A 
ATOM     14  C   UNL d   1      14.436  -5.946  62.059  0.00  0.00     0.049 C 
ATOM     15  C   UNL d   1      13.630  -3.963  60.748  0.00  0.00     0.019 A 
ATOM     16  C   UNL d   1      13.693  -3.032  59.684  0.00  0.00    -0.025 A 
ATOM     17  C   UNL d   1      14.749  -3.189  58.757  0.00  0.00     0.013 A 
ATOM     18  C   UNL d   1      15.693  -4.206  58.896  0.00  0.00     0.010 A 
BRANCH  16  19
ATOM     19  C   UNL d   1      12.677  -1.915  59.542  0.00  0.00    -0.025 A 
ATOM     20  C   UNL d   1      13.056  -0.616  59.118  0.00  0.00     0.012 A 
ATOM     21  C   UNL d   1      12.116   0.409  58.987  0.00  0.00     0.002 A 
ATOM     22  C   UNL d   1      10.775   0.174  59.273  0.00  0.00     0.023 A 
ATOM     23  C   UNL d   1      10.364  -1.091  59.689  0.00  0.00     0.059 A 
ATOM     24  C   UNL d   1      11.302  -2.123  59.824  0.00  0.00     0.035 A 
BRANCH  23  25
ATOM     25  S   UNL d   1       8.634  -1.391  60.067  0.00  0.00     0.171 S 
ATOM     26  O   UNL d   1       8.583  -2.154  61.399  0.00  0.00    -0.223 OA
ATOM     27  C   UNL d   1       7.333  -0.128  60.109  0.00  0.00     0.167 C 
ATOM     28  O   UNL d   1       8.153  -2.521  59.144  0.00  0.00    -0.223 OA
ENDBRANCH  23  25
ENDBRANCH  16  19
ENDBRANCH  11  12
ENDBRANCH   1  11
BRANCH   1  29
ATOM     29  C   UNL d   1      19.122  -6.607  59.631  0.00  0.00     0.108 C 
BRANCH  29  30
ATOM     30  C   UNL d   1      19.565  -6.822  58.172  0.00  0.00    -0.026 A 
ATOM     31  C   UNL d   1      18.870  -7.387  57.068  0.00  0.00    -0.013 A 
ATOM     32  C   UNL d   1      17.483  -7.938  56.930  0.00  0.00     0.057 C 
ATOM     33  S   UNL d   1      19.884  -7.362  55.724  0.00  0.00    -0.100 SA
ATOM     34  C   UNL d   1      21.196  -6.666  56.482  0.00  0.00    -0.020 A 
ATOM     35  C   UNL d   1      22.505  -6.353  55.839  0.00  0.00     0.056 C 
ATOM     36  C   UNL d   1      20.873  -6.433  57.806  0.00  0.00     0.024 A 
ENDBRANCH  29  30
BRANCH  29  37
ATOM     37  C   UNL d   1      18.816  -7.841  60.517  0.00  0.00     0.025 C 
BRANCH  37  38
ATOM     38  C   UNL d   1      19.524  -9.147  60.096  0.00  0.00    -0.003 C 
ATOM     39  C   UNL d   1      19.851 -10.077  61.266  0.00  0.00     0.005 C 
ENDBRANCH  37  38
ENDBRANCH  29  37
ENDBRANCH   1  29
TORSDOF 10
ENDMDL
MODEL 4
REMARK VINA RESULT:   -10.692      1.845      4.204
REMARK INTER + INTRA:         -16.848
REMARK INTER:                 -14.876
REMARK INTRA:                  -1.971
REMARK UNBOUND:                 0.095
REMARK  10 active torsions:
REMARK  status: ('A' for Active; 'I' for Inactive)
REMARK    1  A    between atoms: C_3  and  C_2 
REMARK    2  A    between atoms: C_4  and  C_3 
REMARK    3  A    between atoms: C_4  and  C_6 
REMARK    4  A    between atoms: C_4  and  N_5 
REMARK    5  A    between atoms: S_7  and  N_5 
REMARK    6  A    between atoms: N_5  and  C_8 
REMARK    7  A    between atoms: S_7  and  C_11 
REMARK    8  A    between atoms: C_8  and  C_19 
REMARK    9  A    between atoms: C_29  and  C_30 
REMARK   10  A    between atoms: C_34  and  S_36 
ROOT
ATOM      1  N   UNL d   1      17.644  -4.537  59.761  0.00  0.00    -0.192 NA
ENDROOT
BRANCH   1   2
ATOM      2  S   UNL d   1      18.729  -5.030  61.108  0.00  0.00     0.263 S 
ATOM      3  O   UNL d   1      19.946  -5.725  60.488  0.00  0.00    -0.204 OA
ATOM      4  O   UNL d   1      18.030  -6.192  61.831  0.00  0.00    -0.204 OA
BRANCH   2   5
ATOM      5  C   UNL d   1      19.253  -3.738  62.229  0.00  0.00     0.183 A 
ATOM      6  C   UNL d   1      20.449  -3.683  62.907  0.00  0.00     0.136 A 
ATOM      7  N   UNL d   1      20.428  -2.577  63.666  0.00  0.00    -0.353 N 
ATOM      8  C   UNL d   1      21.482  -2.123  64.566  0.00  0.00     0.156 C 
ATOM      9  C   UNL d   1      19.242  -1.981  63.437  0.00  0.00     0.210 A 
ATOM     10  N   UNL d   1      18.492  -2.673  62.555  0.00  0.00    -0.229 NA
ENDBRANCH   2   5
ENDBRANCH   1   2
BRANCH   1  11
ATOM     11  C   UNL d   1      16.581  -5.541  59.542  0.00  0.00     0.147 C 
BRANCH  11  12
ATOM     12  C   UNL d   1      15.211  -4.927  59.742  0.00  0.00    -0.038 A 
ATOM     13  C   UNL d   1      14.448  -5.104  60.920  0.00  0.00    -0.054 A 
ATOM     14  C   UNL d   1      14.946  -5.950  62.066  0.00  0.00     0.049 C 
ATOM     15  C   UNL d   1      13.195  -4.475  61.035  0.00  0.00     0.019 A 
ATOM     16  C   UNL d   1      12.662  -3.667  60.002  0.00  0.00    -0.025 A 
ATOM     17  C   UNL d   1      13.442  -3.526  58.831  0.00  0.00     0.013 A 
ATOM     18  C   UNL d   1      14.686  -4.142  58.708  0.00  0.00     0.010 A 
BRANCH  16  19
ATOM     19  C   UNL d   1      11.316  -2.983  60.143  0.00  0.00    -0.025 A 
ATOM     20  C   UNL d   1      10.192  -3.659  60.682  0.00  0.00     0.012 A 
ATOM     21  C   UNL d   1       8.954  -3.024  60.812  0.00  0.00     0.002 A 
ATOM     22  C   UNL d   1       8.798  -1.701  60.410  0.00  0.00     0.023 A 
ATOM     23  C   UNL d   1       9.881  -1.003  59.879  0.00  0.00     0.059 A 
ATOM     24  C   UNL d   1      11.124  -1.635  59.744  0.00  0.00     0.035 A 
BRANCH  23  25
ATOM     25  S   UNL d   1       9.675   0.702  59.352  0.00  0.00     0.171 S 
ATOM     26  O   UNL d   1      10.764   0.992  58.307  0.00  0.00    -0.223 OA
ATOM     27  C   UNL d   1       8.130   1.437  58.750  0.00  0.00     0.167 C 
ATOM     28  O   UNL d   1      10.205   1.598  60.481  0.00  0.00    -0.223 OA
ENDBRANCH  23  25
ENDBRANCH  16  19
ENDBRANCH  11  12
ENDBRANCH   1  11
BRANCH   1  29
ATOM     29  C   UNL d   1      18.322  -4.087  58.513  0.00  0.00     0.108 C 
BRANCH  29  30
ATOM     30  C   UNL d   1      18.602  -2.574  58.484  0.00  0.00    -0.026 A 
ATOM     31  C   UNL d   1      17.762  -1.472  58.800  0.00  0.00    -0.013 A 
ATOM     32  C   UNL d   1      16.346  -1.395  59.286  0.00  0.00     0.057 C 
ATOM     33  S   UNL d   1      18.630  -0.048  58.563  0.00  0.00    -0.100 SA
ATOM     34  C   UNL d   1      20.049  -0.766  58.059  0.00  0.00    -0.020 A 
ATOM     35  C   UNL d   1      21.293  -0.045  57.661  0.00  0.00     0.056 C 
ATOM     36  C   UNL d   1      19.880  -2.138  58.066  0.00  0.00     0.024 A 
ENDBRANCH  29  30
BRANCH  29  37
ATOM     37  C   UNL d   1      17.664  -4.758  57.281  0.00  0.00     0.025 C 
BRANCH  37  38
ATOM     38  C   UNL d   1      18.633  -5.512  56.344  0.00  0.00    -0.003 C 
ATOM     39  C   UNL d   1      20.030  -5.712  56.932  0.00  0.00     0.005 C 
ENDBRANCH  37  38
ENDBRANCH  29  37
ENDBRANCH   1  29
TORSDOF 10
ENDMDL
MODEL 5
REMARK VINA RESULT:   -10.537      1.786      4.667
REMARK INTER + INTRA:         -16.602
REMARK INTER:                 -16.340
REMARK INTRA:                  -0.261
REMARK UNBOUND:                 0.095
REMARK  10 active torsions:
REMARK  status: ('A' for Active; 'I' for Inactive)
REMARK    1  A    between atoms: C_3  and  C_2 
REMARK    2  A    between atoms: C_4  and  C_3 
REMARK    3  A    between atoms: C_4  and  C_6 
REMARK    4  A    between atoms: C_4  and  N_5 
REMARK    5  A    between atoms: S_7  and  N_5 
REMARK    6  A    between atoms: N_5  and  C_8 
REMARK    7  A    between atoms: S_7  and  C_11 
REMARK    8  A    between atoms: C_8  and  C_19 
REMARK    9  A    between atoms: C_29  and  C_30 
REMARK   10  A    between atoms: C_34  and  S_36 
ROOT
ATOM      1  N   UNL d   1      17.615  -4.588  59.642  0.00  0.00    -0.192 NA
ENDROOT
BRANCH   1   2
ATOM      2  S   UNL d   1      18.768  -5.036  60.947  0.00  0.00     0.263 S 
ATOM      3  O   UNL d   1      20.023  -5.606  60.276  0.00  0.00    -0.204 OA
ATOM      4  O   UNL d   1      18.184  -6.276  61.642  0.00  0.00    -0.204 OA
BRANCH   2   5
ATOM      5  C   UNL d   1      19.212  -3.745  62.104  0.00  0.00     0.183 A 
ATOM      6  C   UNL d   1      20.369  -3.678  62.845  0.00  0.00     0.136 A 
ATOM      7  N   UNL d   1      20.291  -2.578  63.610  0.00  0.00    -0.353 N 
ATOM      8  C   UNL d   1      21.288  -2.115  64.568  0.00  0.00     0.156 C 
ATOM      9  C   UNL d   1      19.109  -1.998  63.321  0.00  0.00     0.210 A 
ATOM     10  N   UNL d   1      18.419  -2.694  62.395  0.00  0.00    -0.229 NA
ENDBRANCH   2   5
ENDBRANCH   1   2
BRANCH   1  11
ATOM     11  C   UNL d   1      16.541  -5.597  59.514  0.00  0.00     0.147 C 
BRANCH  11  12
ATOM     12  C   UNL d   1      15.180  -4.965  59.716  0.00  0.00    -0.038 A 
ATOM     13  C   UNL d   1      14.391  -5.179  60.870  0.00  0.00    -0.054 A 
ATOM     14  C   UNL d   1      14.849  -6.087  61.986  0.00  0.00     0.049 C 
ATOM     15  C   UNL d   1      13.149  -4.531  60.990  0.00  0.00     0.019 A 
ATOM     16  C   UNL d   1      12.652  -3.666  59.986  0.00  0.00    -0.025 A 
ATOM     17  C   UNL d   1      13.458  -3.487  58.838  0.00  0.00     0.013 A 
ATOM     18  C   UNL d   1      14.692  -4.123  58.711  0.00  0.00     0.010 A 
BRANCH  16  19
ATOM     19  C   UNL d   1      11.317  -2.960  60.133  0.00  0.00    -0.025 A 
ATOM     20  C   UNL d   1      10.190  -3.615  60.693  0.00  0.00     0.012 A 
ATOM     21  C   UNL d   1       8.963  -2.960  60.828  0.00  0.00     0.002 A 
ATOM     22  C   UNL d   1       8.820  -1.640  60.413  0.00  0.00     0.023 A 
ATOM     23  C   UNL d   1       9.907  -0.964  59.861  0.00  0.00     0.059 A 
ATOM     24  C   UNL d   1      11.140  -1.615  59.721  0.00  0.00     0.035 A 
BRANCH  23  25
ATOM     25  S   UNL d   1       9.719   0.737  59.316  0.00  0.00     0.171 S 
ATOM     26  O   UNL d   1      10.847   1.022  58.312  0.00  0.00    -0.223 OA
ATOM     27  C   UNL d   1       8.197   1.466  58.650  0.00  0.00     0.167 C 
ATOM     28  O   UNL d   1      10.205   1.641  60.459  0.00  0.00    -0.223 OA
ENDBRANCH  23  25
ENDBRANCH  16  19
ENDBRANCH  11  12
ENDBRANCH   1  11
BRANCH   1  29
ATOM     29  C   UNL d   1      18.226  -4.182  58.346  0.00  0.00     0.108 C 
BRANCH  29  30
ATOM     30  C   UNL d   1      18.987  -5.324  57.648  0.00  0.00    -0.026 A 
ATOM     31  C   UNL d   1      18.617  -6.677  57.420  0.00  0.00    -0.013 A 
ATOM     32  C   UNL d   1      17.375  -7.448  57.748  0.00  0.00     0.057 C 
ATOM     33  S   UNL d   1      19.877  -7.450  56.611  0.00  0.00    -0.100 SA
ATOM     34  C   UNL d   1      20.899  -6.134  56.539  0.00  0.00    -0.020 A 
ATOM     35  C   UNL d   1      22.260  -6.124  55.929  0.00  0.00     0.056 C 
ATOM     36  C   UNL d   1      20.280  -5.056  57.144  0.00  0.00     0.024 A 
ENDBRANCH  29  30
BRANCH  29  37
ATOM     37  C   UNL d   1      18.908  -2.798  58.493  0.00  0.00     0.025 C 
BRANCH  37  38
ATOM     38  C   UNL d   1      18.009  -1.583  58.175  0.00  0.00    -0.003 C 
ATOM     39  C   UNL d   1      16.992  -1.264  59.272  0.00  0.00     0.005 C 
ENDBRANCH  37  38
ENDBRANCH  29  37
ENDBRANCH   1  29
TORSDOF 10
ENDMDL
MODEL 6
REMARK VINA RESULT:   -10.082      1.422      2.188
REMARK INTER + INTRA:         -15.881
REMARK INTER:                 -14.538
REMARK INTRA:                  -1.343
REMARK UNBOUND:                 0.095
REMARK  10 active torsions:
REMARK  status: ('A' for Active; 'I' for Inactive)
REMARK    1  A    between atoms: C_3  and  C_2 
REMARK    2  A    between atoms: C_4  and  C_3 
REMARK    3  A    between atoms: C_4  and  C_6 
REMARK    4  A    between atoms: C_4  and  N_5 
REMARK    5  A    between atoms: S_7  and  N_5 
REMARK    6  A    between atoms: N_5  and  C_8 
REMARK    7  A    between atoms: S_7  and  C_11 
REMARK    8  A    between atoms: C_8  and  C_19 
REMARK    9  A    between atoms: C_29  and  C_30 
REMARK   10  A    between atoms: C_34  and  S_36 
ROOT
ATOM      1  N   UNL d   1      17.900  -4.400  60.459  0.00  0.00    -0.192 NA
ENDROOT
BRANCH   1   2
ATOM      2  S   UNL d   1      17.916  -6.143  60.902  0.00  0.00     0.263 S 
ATOM      3  O   UNL d   1      16.562  -6.466  61.545  0.00  0.00    -0.204 OA
ATOM      4  O   UNL d   1      18.878  -6.284  62.092  0.00  0.00    -0.204 OA
BRANCH   2   5
ATOM      5  C   UNL d   1      18.274  -7.301  59.586  0.00  0.00     0.183 A 
ATOM      6  C   UNL d   1      18.042  -7.106  58.244  0.00  0.00     0.136 A 
ATOM      7  N   UNL d   1      18.415  -8.226  57.606  0.00  0.00    -0.353 N 
ATOM      8  C   UNL d   1      18.334  -8.475  56.172  0.00  0.00     0.156 C 
ATOM      9  C   UNL d   1      18.867  -9.070  58.554  0.00  0.00     0.210 A 
ATOM     10  N   UNL d   1      18.792  -8.529  59.788  0.00  0.00    -0.229 NA
ENDBRANCH   2   5
ENDBRANCH   1   2
BRANCH   1  11
ATOM     11  C   UNL d   1      17.287  -4.197  59.129  0.00  0.00     0.147 C 
BRANCH  11  12
ATOM     12  C   UNL d   1      15.985  -3.432  59.248  0.00  0.00    -0.038 A 
ATOM     13  C   UNL d   1      14.749  -4.049  59.552  0.00  0.00    -0.054 A 
ATOM     14  C   UNL d   1      14.638  -5.540  59.757  0.00  0.00     0.049 C 
ATOM     15  C   UNL d   1      13.591  -3.261  59.670  0.00  0.00     0.019 A 
ATOM     16  C   UNL d   1      13.616  -1.857  59.491  0.00  0.00    -0.025 A 
ATOM     17  C   UNL d   1      14.864  -1.274  59.171  0.00  0.00     0.013 A 
ATOM     18  C   UNL d   1      16.018  -2.046  59.054  0.00  0.00     0.010 A 
BRANCH  16  19
ATOM     19  C   UNL d   1      12.363  -1.014  59.635  0.00  0.00    -0.025 A 
ATOM     20  C   UNL d   1      12.386   0.390  59.439  0.00  0.00     0.012 A 
ATOM     21  C   UNL d   1      11.229   1.162  59.572  0.00  0.00     0.002 A 
ATOM     22  C   UNL d   1      10.018   0.563  59.902  0.00  0.00     0.023 A 
ATOM     23  C   UNL d   1       9.956  -0.816  60.099  0.00  0.00     0.059 A 
ATOM     24  C   UNL d   1      11.113  -1.595  59.970  0.00  0.00     0.035 A 
BRANCH  23  25
ATOM     25  S   UNL d   1       8.394  -1.588  60.535  0.00  0.00     0.171 S 
ATOM     26  O   UNL d   1       8.717  -2.826  61.386  0.00  0.00    -0.223 OA
ATOM     27  C   UNL d   1       6.985  -0.746  61.307  0.00  0.00     0.167 C 
ATOM     28  O   UNL d   1       7.873  -2.308  59.282  0.00  0.00    -0.223 OA
ENDBRANCH  23  25
ENDBRANCH  16  19
ENDBRANCH  11  12
ENDBRANCH   1  11
BRANCH   1  29
ATOM     29  C   UNL d   1      19.183  -3.669  60.655  0.00  0.00     0.108 C 
BRANCH  29  30
ATOM     30  C   UNL d   1      19.311  -3.025  62.048  0.00  0.00    -0.026 A 
ATOM     31  C   UNL d   1      18.385  -2.246  62.794  0.00  0.00    -0.013 A 
ATOM     32  C   UNL d   1      16.981  -1.807  62.508  0.00  0.00     0.057 C 
ATOM     33  S   UNL d   1      19.103  -1.811  64.255  0.00  0.00    -0.100 SA
ATOM     34  C   UNL d   1      20.566  -2.565  63.985  0.00  0.00    -0.020 A 
ATOM     35  C   UNL d   1      21.726  -2.570  64.924  0.00  0.00     0.056 C 
ATOM     36  C   UNL d   1      20.529  -3.179  62.747  0.00  0.00     0.024 A 
ENDBRANCH  29  30
BRANCH  29  37
ATOM     37  C   UNL d   1      19.508  -2.823  59.399  0.00  0.00     0.025 C 
BRANCH  37  38
ATOM     38  C   UNL d   1      19.437  -1.292  59.598  0.00  0.00    -0.003 C 
ATOM     39  C   UNL d   1      19.800  -0.489  58.348  0.00  0.00     0.005 C 
ENDBRANCH  37  38
ENDBRANCH  29  37
ENDBRANCH   1  29
TORSDOF 10
ENDMDL
MODEL 7
REMARK VINA RESULT:   -10.014      2.013      2.772
REMARK INTER + INTRA:         -15.773
REMARK INTER:                 -16.535
REMARK INTRA:                   0.762
REMARK UNBOUND:                 0.095
REMARK  10 active torsions:
REMARK  status: ('A' for Active; 'I' for Inactive)
REMARK    1  A    between atoms: C_3  and  C_2 
REMARK    2  A    between atoms: C_4  and  C_3 
REMARK    3  A    between atoms: C_4  and  C_6 
REMARK    4  A    between atoms: C_4  and  N_5 
REMARK    5  A    between atoms: S_7  and  N_5 
REMARK    6  A    between atoms: N_5  and  C_8 
REMARK    7  A    between atoms: S_7  and  C_11 
REMARK    8  A    between atoms: C_8  and  C_19 
REMARK    9  A    between atoms: C_29  and  C_30 
REMARK   10  A    between atoms: C_34  and  S_36 
ROOT
ATOM      1  N   UNL d   1      17.657  -3.787  59.821  0.00  0.00    -0.192 NA
ENDROOT
BRANCH   1   2
ATOM      2  S   UNL d   1      18.581  -3.450  58.315  0.00  0.00     0.263 S 
ATOM      3  O   UNL d   1      19.869  -2.724  58.719  0.00  0.00    -0.204 OA
ATOM      4  O   UNL d   1      17.814  -2.349  57.567  0.00  0.00    -0.204 OA
BRANCH   2   5
ATOM      5  C   UNL d   1      18.958  -4.856  57.274  0.00  0.00     0.183 A 
ATOM      6  C   UNL d   1      20.210  -5.249  56.859  0.00  0.00     0.136 A 
ATOM      7  N   UNL d   1      20.050  -6.320  56.066  0.00  0.00    -0.353 N 
ATOM      8  C   UNL d   1      21.106  -7.062  55.388  0.00  0.00     0.156 C 
ATOM      9  C   UNL d   1      18.725  -6.561  56.017  0.00  0.00     0.210 A 
ATOM     10  N   UNL d   1      18.023  -5.674  56.752  0.00  0.00    -0.229 NA
ENDBRANCH   2   5
ENDBRANCH   1   2
BRANCH   1  11
ATOM     11  C   UNL d   1      17.062  -2.548  60.366  0.00  0.00     0.147 C 
BRANCH  11  12
ATOM     12  C   UNL d   1      15.560  -2.541  60.171  0.00  0.00    -0.038 A 
ATOM     13  C   UNL d   1      14.725  -3.617  60.552  0.00  0.00    -0.054 A 
ATOM     14  C   UNL d   1      15.287  -4.876  61.166  0.00  0.00     0.049 C 
ATOM     15  C   UNL d   1      13.336  -3.518  60.360  0.00  0.00     0.019 A 
ATOM     16  C   UNL d   1      12.736  -2.369  59.790  0.00  0.00    -0.025 A 
ATOM     17  C   UNL d   1      13.600  -1.319  59.404  0.00  0.00     0.013 A 
ATOM     18  C   UNL d   1      14.979  -1.407  59.593  0.00  0.00     0.010 A 
BRANCH  16  19
ATOM     19  C   UNL d   1      11.234  -2.267  59.600  0.00  0.00    -0.025 A 
ATOM     20  C   UNL d   1      10.407  -3.420  59.593  0.00  0.00     0.012 A 
ATOM     21  C   UNL d   1       9.024  -3.320  59.420  0.00  0.00     0.002 A 
ATOM     22  C   UNL d   1       8.424  -2.077  59.251  0.00  0.00     0.023 A 
ATOM     23  C   UNL d   1       9.204  -0.922  59.256  0.00  0.00     0.059 A 
ATOM     24  C   UNL d   1      10.592  -1.015  59.427  0.00  0.00     0.035 A 
BRANCH  23  25
ATOM     25  S   UNL d   1       8.430   0.682  59.027  0.00  0.00     0.171 S 
ATOM     26  O   UNL d   1       9.037   1.636  60.068  0.00  0.00    -0.223 OA
ATOM     27  C   UNL d   1       8.323   1.583  57.457  0.00  0.00     0.167 C 
ATOM     28  O   UNL d   1       7.010   0.593  59.608  0.00  0.00    -0.223 OA
ENDBRANCH  23  25
ENDBRANCH  16  19
ENDBRANCH  11  12
ENDBRANCH   1  11
BRANCH   1  29
ATOM     29  C   UNL d   1      18.354  -4.625  60.836  0.00  0.00     0.108 C 
BRANCH  29  30
ATOM     30  C   UNL d   1      19.069  -3.799  61.921  0.00  0.00    -0.026 A 
ATOM     31  C   UNL d   1      18.561  -2.840  62.838  0.00  0.00    -0.013 A 
ATOM     32  C   UNL d   1      17.176  -2.323  63.086  0.00  0.00     0.057 C 
ATOM     33  S   UNL d   1      19.836  -2.262  63.775  0.00  0.00    -0.100 SA
ATOM     34  C   UNL d   1      21.033  -3.176  63.059  0.00  0.00    -0.020 A 
ATOM     35  C   UNL d   1      22.480  -3.149  63.421  0.00  0.00     0.056 C 
ATOM     36  C   UNL d   1      20.465  -3.958  62.070  0.00  0.00     0.024 A 
ENDBRANCH  29  30
BRANCH  29  37
ATOM     37  C   UNL d   1      19.118  -5.778  60.137  0.00  0.00     0.025 C 
BRANCH  37  38
ATOM     38  C   UNL d   1      18.355  -7.119  60.053  0.00  0.00    -0.003 C 
ATOM     39  C   UNL d   1      19.197  -8.275  59.510  0.00  0.00     0.005 C 
ENDBRANCH  37  38
ENDBRANCH  29  37
ENDBRANCH   1  29
TORSDOF 10
ENDMDL
MODEL 8
REMARK VINA RESULT:    -9.527      1.587      2.905
REMARK INTER + INTRA:         -15.002
REMARK INTER:                 -15.340
REMARK INTRA:                   0.338
REMARK UNBOUND:                 0.095
REMARK  10 active torsions:
REMARK  status: ('A' for Active; 'I' for Inactive)
REMARK    1  A    between atoms: C_3  and  C_2 
REMARK    2  A    between atoms: C_4  and  C_3 
REMARK    3  A    between atoms: C_4  and  C_6 
REMARK    4  A    between atoms: C_4  and  N_5 
REMARK    5  A    between atoms: S_7  and  N_5 
REMARK    6  A    between atoms: N_5  and  C_8 
REMARK    7  A    between atoms: S_7  and  C_11 
REMARK    8  A    between atoms: C_8  and  C_19 
REMARK    9  A    between atoms: C_29  and  C_30 
REMARK   10  A    between atoms: C_34  and  S_36 
ROOT
ATOM      1  N   UNL d   1      17.214  -4.605  60.558  0.00  0.00    -0.192 NA
ENDROOT
BRANCH   1   2
ATOM      2  S   UNL d   1      18.669  -5.657  60.459  0.00  0.00     0.263 S 
ATOM      3  O   UNL d   1      18.540  -6.724  61.551  0.00  0.00    -0.204 OA
ATOM      4  O   UNL d   1      19.852  -4.819  60.967  0.00  0.00    -0.204 OA
BRANCH   2   5
ATOM      5  C   UNL d   1      18.999  -6.422  58.875  0.00  0.00     0.183 A 
ATOM      6  C   UNL d   1      19.771  -5.900  57.863  0.00  0.00     0.136 A 
ATOM      7  N   UNL d   1      19.729  -6.766  56.839  0.00  0.00    -0.353 N 
ATOM      8  C   UNL d   1      20.390  -6.616  55.549  0.00  0.00     0.156 C 
ATOM      9  C   UNL d   1      18.949  -7.790  57.240  0.00  0.00     0.210 A 
ATOM     10  N   UNL d   1      18.482  -7.608  58.493  0.00  0.00    -0.229 NA
ENDBRANCH   2   5
ENDBRANCH   1   2
BRANCH   1  11
ATOM     11  C   UNL d   1      16.463  -4.618  59.283  0.00  0.00     0.147 C 
BRANCH  11  12
ATOM     12  C   UNL d   1      15.026  -4.193  59.501  0.00  0.00    -0.038 A 
ATOM     13  C   UNL d   1      14.244  -4.638  60.593  0.00  0.00    -0.054 A 
ATOM     14  C   UNL d   1      14.791  -5.601  61.618  0.00  0.00     0.049 C 
ATOM     15  C   UNL d   1      12.925  -4.173  60.735  0.00  0.00     0.019 A 
ATOM     16  C   UNL d   1      12.342  -3.269  59.814  0.00  0.00    -0.025 A 
ATOM     17  C   UNL d   1      13.145  -2.858  58.726  0.00  0.00     0.013 A 
ATOM     18  C   UNL d   1      14.455  -3.311  58.576  0.00  0.00     0.010 A 
BRANCH  16  19
ATOM     19  C   UNL d   1      10.923  -2.763  59.986  0.00  0.00    -0.025 A 
ATOM     20  C   UNL d   1       9.915  -3.566  60.579  0.00  0.00     0.012 A 
ATOM     21  C   UNL d   1       8.609  -3.095  60.737  0.00  0.00     0.002 A 
ATOM     22  C   UNL d   1       8.267  -1.815  60.312  0.00  0.00     0.023 A 
ATOM     23  C   UNL d   1       9.232  -0.996  59.728  0.00  0.00     0.059 A 
ATOM     24  C   UNL d   1      10.543  -1.463  59.565  0.00  0.00     0.035 A 
BRANCH  23  25
ATOM     25  S   UNL d   1       8.788   0.653  59.171  0.00  0.00     0.171 S 
ATOM     26  O   UNL d   1       9.561   0.920  57.870  0.00  0.00    -0.223 OA
ATOM     27  C   UNL d   1       7.095   1.262  58.936  0.00  0.00     0.167 C 
ATOM     28  O   UNL d   1       9.520   1.656  60.075  0.00  0.00    -0.223 OA
ENDBRANCH  23  25
ENDBRANCH  16  19
ENDBRANCH  11  12
ENDBRANCH   1  11
BRANCH   1  29
ATOM     29  C   UNL d   1      17.435  -3.243  61.120  0.00  0.00     0.108 C 
BRANCH  29  30
ATOM     30  C   UNL d   1      17.799  -2.195  60.052  0.00  0.00    -0.026 A 
ATOM     31  C   UNL d   1      17.007  -1.186  59.441  0.00  0.00    -0.013 A 
ATOM     32  C   UNL d   1      15.577  -0.776  59.631  0.00  0.00     0.057 C 
ATOM     33  S   UNL d   1      17.961  -0.352  58.331  0.00  0.00    -0.100 SA
ATOM     34  C   UNL d   1      19.359  -1.227  58.580  0.00  0.00    -0.020 A 
ATOM     35  C   UNL d   1      20.657  -1.009  57.878  0.00  0.00     0.056 C 
ATOM     36  C   UNL d   1      19.115  -2.192  59.540  0.00  0.00     0.024 A 
ENDBRANCH  29  30
BRANCH  29  37
ATOM     37  C   UNL d   1      18.287  -3.335  62.411  0.00  0.00     0.025 C 
BRANCH  37  38
ATOM     38  C   UNL d   1      18.522  -1.995  63.143  0.00  0.00    -0.003 C 
ATOM     39  C   UNL d   1      19.626  -2.054  64.199  0.00  0.00     0.005 C 
ENDBRANCH  37  38
ENDBRANCH  29  37
ENDBRANCH   1  29
TORSDOF 10
ENDMDL
MODEL 9
REMARK VINA RESULT:    -9.205      1.859      4.966
REMARK INTER + INTRA:         -14.492
REMARK INTER:                 -14.587
REMARK INTRA:                   0.095
REMARK UNBOUND:                 0.095
REMARK  10 active torsions:
REMARK  status: ('A' for Active; 'I' for Inactive)
REMARK    1  A    between atoms: C_3  and  C_2 
REMARK    2  A    between atoms: C_4  and  C_3 
REMARK    3  A    between atoms: C_4  and  C_6 
REMARK    4  A    between atoms: C_4  and  N_5 
REMARK    5  A    between atoms: S_7  and  N_5 
REMARK    6  A    between atoms: N_5  and  C_8 
REMARK    7  A    between atoms: S_7  and  C_11 
REMARK    8  A    between atoms: C_8  and  C_19 
REMARK    9  A    between atoms: C_29  and  C_30 
REMARK   10  A    between atoms: C_34  and  S_36 
ROOT
ATOM      1  N   UNL d   1      17.800  -4.450  59.952  0.00  0.00    -0.192 NA
ENDROOT
BRANCH   1   2
ATOM      2  S   UNL d   1      19.036  -4.848  61.196  0.00  0.00     0.263 S 
ATOM      3  O   UNL d   1      20.307  -5.284  60.459  0.00  0.00    -0.204 OA
ATOM      4  O   UNL d   1      18.584  -6.158  61.860  0.00  0.00    -0.204 OA
BRANCH   2   5
ATOM      5  C   UNL d   1      19.415  -3.568  62.388  0.00  0.00     0.183 A 
ATOM      6  C   UNL d   1      20.575  -3.453  63.119  0.00  0.00     0.136 A 
ATOM      7  N   UNL d   1      20.441  -2.384  63.918  0.00  0.00    -0.353 N 
ATOM      8  C   UNL d   1      21.420  -1.891  64.879  0.00  0.00     0.156 C 
ATOM      9  C   UNL d   1      19.222  -1.869  63.661  0.00  0.00     0.210 A 
ATOM     10  N   UNL d   1      18.563  -2.577  62.721  0.00  0.00    -0.229 NA
ENDBRANCH   2   5
ENDBRANCH   1   2
BRANCH   1  11
ATOM     11  C   UNL d   1      16.510  -5.107  60.257  0.00  0.00     0.147 C 
BRANCH  11  12
ATOM     12  C   UNL d   1      15.357  -4.142  60.075  0.00  0.00    -0.038 A 
ATOM     13  C   UNL d   1      14.035  -4.428  60.488  0.00  0.00    -0.054 A 
ATOM     14  C   UNL d   1      13.673  -5.747  61.128  0.00  0.00     0.049 C 
ATOM     15  C   UNL d   1      13.028  -3.464  60.306  0.00  0.00     0.019 A 
ATOM     16  C   UNL d   1      13.291  -2.205  59.714  0.00  0.00    -0.025 A 
ATOM     17  C   UNL d   1      14.619  -1.958  59.296  0.00  0.00     0.013 A 
ATOM     18  C   UNL d   1      15.625  -2.906  59.475  0.00  0.00     0.010 A 
BRANCH  16  19
ATOM     19  C   UNL d   1      12.199  -1.167  59.535  0.00  0.00    -0.025 A 
ATOM     20  C   UNL d   1      12.491   0.147  59.089  0.00  0.00     0.012 A 
ATOM     21  C   UNL d   1      11.482   1.100  58.925  0.00  0.00     0.002 A 
ATOM     22  C   UNL d   1      10.157   0.775  59.197  0.00  0.00     0.023 A 
ATOM     23  C   UNL d   1       9.832  -0.508  59.635  0.00  0.00     0.059 A 
ATOM     24  C   UNL d   1      10.839  -1.467  59.804  0.00  0.00     0.035 A 
BRANCH  23  25
ATOM     25  S   UNL d   1       8.122  -0.924  59.996  0.00  0.00     0.171 S 
ATOM     26  O   UNL d   1       7.781  -2.191  59.196  0.00  0.00    -0.223 OA
ATOM     27  C   UNL d   1       7.416  -1.117  61.656  0.00  0.00     0.167 C 
ATOM     28  O   UNL d   1       7.237   0.070  59.229  0.00  0.00    -0.223 OA
ENDBRANCH  23  25
ENDBRANCH  16  19
ENDBRANCH  11  12
ENDBRANCH   1  11
BRANCH   1  29
ATOM     29  C   UNL d   1      18.235  -4.593  58.535  0.00  0.00     0.108 C 
BRANCH  29  30
ATOM     30  C   UNL d   1      18.836  -5.975  58.219  0.00  0.00    -0.026 A 
ATOM     31  C   UNL d   1      19.942  -6.338  57.403  0.00  0.00    -0.013 A 
ATOM     32  C   UNL d   1      20.908  -5.522  56.600  0.00  0.00     0.057 C 
ATOM     33  S   UNL d   1      20.109  -8.014  57.438  0.00  0.00    -0.100 SA
ATOM     34  C   UNL d   1      18.817  -8.318  58.448  0.00  0.00    -0.020 A 
ATOM     35  C   UNL d   1      18.371  -9.666  58.907  0.00  0.00     0.056 C 
ATOM     36  C   UNL d   1      18.224  -7.115  58.787  0.00  0.00     0.024 A 
ENDBRANCH  29  30
BRANCH  29  37
ATOM     37  C   UNL d   1      18.992  -3.319  58.082  0.00  0.00     0.025 C 
BRANCH  37  38
ATOM     38  C   UNL d   1      18.837  -2.095  59.012  0.00  0.00    -0.003 C 
ATOM     39  C   UNL d   1      19.645  -0.875  58.566  0.00  0.00     0.005 C 
ENDBRANCH  37  38
ENDBRANCH  29  37
ENDBRANCH   1  29
TORSDOF 10
ENDMDL
