REMARK  10 active torsions:
REMARK  status: ('A' for Active; 'I' for Inactive)
REMARK    1  A    between atoms: C_3  and  C_2 
REMARK    2  A    between atoms: C_4  and  C_3 
REMARK    3  A    between atoms: C_4  and  C_6 
REMARK    4  A    between atoms: C_4  and  N_5 
REMARK    5  A    between atoms: S_7  and  N_5 
REMARK    6  A    between atoms: N_5  and  C_8 
REMARK    7  A    between atoms: S_7  and  C_11 
REMARK    8  A    between atoms: C_8  and  C_19 
REMARK    9  A    between atoms: C_29  and  C_30 
REMARK   10  A    between atoms: C_34  and  S_36 
ROOT
ATOM      1  N   UNL d   1       3.152  -1.079   0.328  0.00  0.00    -0.192 NA
ENDROOT
BRANCH   1   2
ATOM      2  S   UNL d   1       2.417  -0.044   1.602  0.00  0.00     0.263 S 
ATOM      3  O   UNL d   1       3.286   1.212   1.732  0.00  0.00    -0.204 OA
ATOM      4  O   UNL d   1       2.672  -0.751   2.942  0.00  0.00    -0.204 OA
BRANCH   2   5
ATOM      5  C   UNL d   1       0.700   0.406   1.377  0.00  0.00     0.183 A 
ATOM      6  C   UNL d   1      -0.346   0.066   2.204  0.00  0.00     0.136 A 
ATOM      7  N   UNL d   1      -1.466   0.566   1.659  0.00  0.00    -0.353 N 
ATOM      8  C   UNL d   1      -2.819   0.437   2.186  0.00  0.00     0.156 C 
ATOM      9  C   UNL d   1      -1.089   1.198   0.530  0.00  0.00     0.210 A 
ATOM     10  N   UNL d   1       0.242   1.117   0.327  0.00  0.00    -0.229 NA
ENDBRANCH   2   5
ENDBRANCH   1   2
BRANCH   1  11
ATOM     11  C   UNL d   1       2.576  -2.441   0.354  0.00  0.00     0.147 C 
BRANCH  11  12
ATOM     12  C   UNL d   1       1.106  -2.411  -0.010  0.00  0.00    -0.038 A 
ATOM     13  C   UNL d   1       0.088  -2.903   0.840  0.00  0.00    -0.054 A 
ATOM     14  C   UNL d   1       0.405  -3.523   2.179  0.00  0.00     0.049 C 
ATOM     15  C   UNL d   1      -1.256  -2.812   0.436  0.00  0.00     0.019 A 
ATOM     16  C   UNL d   1      -1.631  -2.244  -0.805  0.00  0.00    -0.025 A 
ATOM     17  C   UNL d   1      -0.588  -1.778  -1.638  0.00  0.00     0.013 A 
ATOM     18  C   UNL d   1       0.747  -1.861  -1.246  0.00  0.00     0.010 A 
BRANCH  16  19
ATOM     19  C   UNL d   1      -3.085  -2.138  -1.224  0.00  0.00    -0.025 A 
ATOM     20  C   UNL d   1      -4.140  -2.445  -0.327  0.00  0.00     0.012 A 
ATOM     21  C   UNL d   1      -5.478  -2.344  -0.717  0.00  0.00     0.002 A 
ATOM     22  C   UNL d   1      -5.806  -1.936  -2.006  0.00  0.00     0.023 A 
ATOM     23  C   UNL d   1      -4.796  -1.623  -2.914  0.00  0.00     0.059 A 
ATOM     24  C   UNL d   1      -3.452  -1.724  -2.530  0.00  0.00     0.035 A 
BRANCH  23  25
ATOM     25  S   UNL d   1      -5.220  -1.106  -4.581  0.00  0.00     0.171 S 
ATOM     26  O   UNL d   1      -4.235   0.004  -4.980  0.00  0.00    -0.223 OA
ATOM     27  C   UNL d   1      -5.408  -2.210  -6.008  0.00  0.00     0.167 C 
ATOM     28  O   UNL d   1      -6.493  -0.251  -4.486  0.00  0.00    -0.223 OA
ENDBRANCH  23  25
ENDBRANCH  16  19
ENDBRANCH  11  12
ENDBRANCH   1  11
BRANCH   1  29
ATOM     29  C   UNL d   1       4.639  -1.049   0.245  0.00  0.00     0.108 C 
BRANCH  29  30
ATOM     30  C   UNL d   1       5.330  -1.339   1.590  0.00  0.00    -0.026 A 
ATOM     31  C   UNL d   1       5.994  -0.467   2.495  0.00  0.00    -0.013 A 
ATOM     32  C   UNL d   1       6.230   1.013   2.474  0.00  0.00     0.057 C 
ATOM     33  S   UNL d   1       6.561  -1.373   3.797  0.00  0.00    -0.100 SA
ATOM     34  C   UNL d   1       6.007  -2.852   3.261  0.00  0.00    -0.020 A 
ATOM     35  C   UNL d   1       6.184  -4.154   3.968  0.00  0.00     0.056 C 
ATOM     36  C   UNL d   1       5.362  -2.674   2.051  0.00  0.00     0.024 A 
ENDBRANCH  29  30
BRANCH  29  37
ATOM     37  C   UNL d   1       5.098   0.171  -0.593  0.00  0.00     0.025 C 
BRANCH  37  38
ATOM     38  C   UNL d   1       6.613   0.235  -0.889  0.00  0.00    -0.003 C 
ATOM     39  C   UNL d   1       7.132  -0.947  -1.709  0.00  0.00     0.005 C 
ENDBRANCH  37  38
ENDBRANCH  29  37
ENDBRANCH   1  29
TORSDOF 10
