MODEL 1
REMARK VINA RESULT:    -7.466      0.000      0.000
REMARK INTER + INTRA:         -13.978
REMARK INTER:                 -11.384
REMARK INTRA:                  -2.594
REMARK UNBOUND:                -2.147
REMARK  10 active torsions:
REMARK  status: ('A' for Active; 'I' for Inactive)
REMARK    1  A    between atoms: C_3  and  C_2 
REMARK    2  A    between atoms: C_4  and  C_3 
REMARK    3  A    between atoms: C_4  and  C_6 
REMARK    4  A    between atoms: C_4  and  N_5 
REMARK    5  A    between atoms: S_7  and  N_5 
REMARK    6  A    between atoms: N_5  and  C_8 
REMARK    7  A    between atoms: S_7  and  C_11 
REMARK    8  A    between atoms: C_8  and  C_19 
REMARK    9  A    between atoms: C_29  and  C_30 
REMARK   10  A    between atoms: C_34  and  S_36 
ROOT
ATOM      1  N   UNL d   1      54.612  17.201  -3.735  0.00  0.00    -0.192 NA
ENDROOT
BRANCH   1   2
ATOM      2  S   UNL d   1      55.098  18.806  -3.091  0.00  0.00     0.263 S 
ATOM      3  O   UNL d   1      54.734  19.857  -4.150  0.00  0.00    -0.204 OA
ATOM      4  O   UNL d   1      56.635  18.839  -3.112  0.00  0.00    -0.204 OA
BRANCH   2   5
ATOM      5  C   UNL d   1      54.432  19.229  -1.487  0.00  0.00     0.183 A 
ATOM      6  C   UNL d   1      53.425  20.134  -1.240  0.00  0.00     0.136 A 
ATOM      7  N   UNL d   1      53.254  20.190   0.091  0.00  0.00    -0.353 N 
ATOM      8  C   UNL d   1      52.307  21.023   0.821  0.00  0.00     0.156 C 
ATOM      9  C   UNL d   1      54.142  19.329   0.623  0.00  0.00     0.210 A 
ATOM     10  N   UNL d   1      54.886  18.720  -0.324  0.00  0.00    -0.229 NA
ENDBRANCH   2   5
ENDBRANCH   1   2
BRANCH   1  11
ATOM     11  C   UNL d   1      53.975  16.363  -2.691  0.00  0.00     0.147 C 
BRANCH  11  12
ATOM     12  C   UNL d   1      52.484  16.198  -2.933  0.00  0.00    -0.038 A 
ATOM     13  C   UNL d   1      51.765  15.040  -2.553  0.00  0.00    -0.054 A 
ATOM     14  C   UNL d   1      52.399  13.878  -1.837  0.00  0.00     0.049 C 
ATOM     15  C   UNL d   1      50.392  14.947  -2.845  0.00  0.00     0.019 A 
ATOM     16  C   UNL d   1      49.693  15.983  -3.508  0.00  0.00    -0.025 A 
ATOM     17  C   UNL d   1      50.435  17.133  -3.860  0.00  0.00     0.013 A 
ATOM     18  C   UNL d   1      51.795  17.235  -3.576  0.00  0.00     0.010 A 
BRANCH  16  19
ATOM     19  C   UNL d   1      48.215  15.866  -3.831  0.00  0.00    -0.025 A 
ATOM     20  C   UNL d   1      47.663  14.664  -4.341  0.00  0.00     0.012 A 
ATOM     21  C   UNL d   1      46.302  14.558  -4.637  0.00  0.00     0.002 A 
ATOM     22  C   UNL d   1      45.452  15.641  -4.436  0.00  0.00     0.023 A 
ATOM     23  C   UNL d   1      45.958  16.838  -3.932  0.00  0.00     0.059 A 
ATOM     24  C   UNL d   1      47.323  16.951  -3.635  0.00  0.00     0.035 A 
BRANCH  23  25
ATOM     25  S   UNL d   1      44.868  18.243  -3.682  0.00  0.00     0.171 S 
ATOM     26  O   UNL d   1      45.287  19.328  -4.685  0.00  0.00    -0.223 OA
ATOM     27  C   UNL d   1      43.055  18.176  -3.676  0.00  0.00     0.167 C 
ATOM     28  O   UNL d   1      45.311  18.948  -2.390  0.00  0.00    -0.223 OA
ENDBRANCH  23  25
ENDBRANCH  16  19
ENDBRANCH  11  12
ENDBRANCH   1  11
BRANCH   1  29
ATOM     29  C   UNL d   1      55.687  16.514  -4.502  0.00  0.00     0.108 C 
BRANCH  29  30
ATOM     30  C   UNL d   1      55.562  16.888  -5.974  0.00  0.00    -0.026 A 
ATOM     31  C   UNL d   1      56.674  17.033  -6.820  0.00  0.00    -0.013 A 
ATOM     32  C   UNL d   1      58.121  16.844  -6.476  0.00  0.00     0.057 C 
ATOM     33  S   UNL d   1      56.147  17.453  -8.360  0.00  0.00    -0.100 SA
ATOM     34  C   UNL d   1      54.512  17.463  -7.986  0.00  0.00    -0.020 A 
ATOM     35  C   UNL d   1      53.411  17.779  -8.941  0.00  0.00     0.056 C 
ATOM     36  C   UNL d   1      54.347  17.135  -6.647  0.00  0.00     0.024 A 
ENDBRANCH  29  30
BRANCH  29  37
ATOM     37  C   UNL d   1      55.745  14.984  -4.217  0.00  0.00     0.025 C 
BRANCH  37  38
ATOM     38  C   UNL d   1      57.103  14.543  -3.640  0.00  0.00    -0.003 C 
ATOM     39  C   UNL d   1      57.632  15.570  -2.644  0.00  0.00     0.005 C 
ENDBRANCH  37  38
ENDBRANCH  29  37
ENDBRANCH   1  29
TORSDOF 10
ENDMDL
MODEL 2
REMARK VINA RESULT:    -7.239      1.754      2.440
REMARK INTER + INTRA:         -13.618
REMARK INTER:                 -10.960
REMARK INTRA:                  -2.658
REMARK UNBOUND:                -2.147
REMARK  10 active torsions:
REMARK  status: ('A' for Active; 'I' for Inactive)
REMARK    1  A    between atoms: C_3  and  C_2 
REMARK    2  A    between atoms: C_4  and  C_3 
REMARK    3  A    between atoms: C_4  and  C_6 
REMARK    4  A    between atoms: C_4  and  N_5 
REMARK    5  A    between atoms: S_7  and  N_5 
REMARK    6  A    between atoms: N_5  and  C_8 
REMARK    7  A    between atoms: S_7  and  C_11 
REMARK    8  A    between atoms: C_8  and  C_19 
REMARK    9  A    between atoms: C_29  and  C_30 
REMARK   10  A    between atoms: C_34  and  S_36 
ROOT
ATOM      1  N   UNL d   1      54.721  17.365  -3.652  0.00  0.00    -0.192 NA
ENDROOT
BRANCH   1   2
ATOM      2  S   UNL d   1      55.315  18.937  -3.018  0.00  0.00     0.263 S 
ATOM      3  O   UNL d   1      56.739  18.711  -2.487  0.00  0.00    -0.204 OA
ATOM      4  O   UNL d   1      54.526  19.216  -1.729  0.00  0.00    -0.204 OA
BRANCH   2   5
ATOM      5  C   UNL d   1      55.249  20.307  -4.165  0.00  0.00     0.183 A 
ATOM      6  C   UNL d   1      56.004  20.445  -5.308  0.00  0.00     0.136 A 
ATOM      7  N   UNL d   1      55.685  21.627  -5.859  0.00  0.00    -0.353 N 
ATOM      8  C   UNL d   1      56.240  22.209  -7.074  0.00  0.00     0.156 C 
ATOM      9  C   UNL d   1      54.753  22.179  -5.058  0.00  0.00     0.210 A 
ATOM     10  N   UNL d   1      54.464  21.390  -4.002  0.00  0.00    -0.229 NA
ENDBRANCH   2   5
ENDBRANCH   1   2
BRANCH   1  11
ATOM     11  C   UNL d   1      54.076  16.556  -2.591  0.00  0.00     0.147 C 
BRANCH  11  12
ATOM     12  C   UNL d   1      52.593  16.360  -2.854  0.00  0.00    -0.038 A 
ATOM     13  C   UNL d   1      51.916  15.146  -2.587  0.00  0.00    -0.054 A 
ATOM     14  C   UNL d   1      52.591  13.946  -1.980  0.00  0.00     0.049 C 
ATOM     15  C   UNL d   1      50.548  15.031  -2.894  0.00  0.00     0.019 A 
ATOM     16  C   UNL d   1      49.812  16.098  -3.462  0.00  0.00    -0.025 A 
ATOM     17  C   UNL d   1      50.512  17.301  -3.702  0.00  0.00     0.013 A 
ATOM     18  C   UNL d   1      51.867  17.426  -3.402  0.00  0.00     0.010 A 
BRANCH  16  19
ATOM     19  C   UNL d   1      48.341  15.957  -3.802  0.00  0.00    -0.025 A 
ATOM     20  C   UNL d   1      47.816  14.752  -4.332  0.00  0.00     0.012 A 
ATOM     21  C   UNL d   1      46.460  14.624  -4.644  0.00  0.00     0.002 A 
ATOM     22  C   UNL d   1      45.588  15.689  -4.439  0.00  0.00     0.023 A 
ATOM     23  C   UNL d   1      46.067  16.889  -3.916  0.00  0.00     0.059 A 
ATOM     24  C   UNL d   1      47.426  17.023  -3.603  0.00  0.00     0.035 A 
BRANCH  23  25
ATOM     25  S   UNL d   1      44.948  18.270  -3.661  0.00  0.00     0.171 S 
ATOM     26  O   UNL d   1      45.360  19.376  -4.645  0.00  0.00    -0.223 OA
ATOM     27  C   UNL d   1      43.137  18.170  -3.679  0.00  0.00     0.167 C 
ATOM     28  O   UNL d   1      45.363  18.967  -2.356  0.00  0.00    -0.223 OA
ENDBRANCH  23  25
ENDBRANCH  16  19
ENDBRANCH  11  12
ENDBRANCH   1  11
BRANCH   1  29
ATOM     29  C   UNL d   1      55.730  16.625  -4.459  0.00  0.00     0.108 C 
BRANCH  29  30
ATOM     30  C   UNL d   1      55.510  16.937  -5.934  0.00  0.00    -0.026 A 
ATOM     31  C   UNL d   1      56.567  17.063  -6.852  0.00  0.00    -0.013 A 
ATOM     32  C   UNL d   1      58.034  16.907  -6.590  0.00  0.00     0.057 C 
ATOM     33  S   UNL d   1      55.941  17.413  -8.373  0.00  0.00    -0.100 SA
ATOM     34  C   UNL d   1      54.332  17.416  -7.899  0.00  0.00    -0.020 A 
ATOM     35  C   UNL d   1      53.170  17.679  -8.797  0.00  0.00     0.056 C 
ATOM     36  C   UNL d   1      54.253  17.141  -6.541  0.00  0.00     0.024 A 
ENDBRANCH  29  30
BRANCH  29  37
ATOM     37  C   UNL d   1      55.784  15.108  -4.111  0.00  0.00     0.025 C 
BRANCH  37  38
ATOM     38  C   UNL d   1      57.222  14.610  -3.871  0.00  0.00    -0.003 C 
ATOM     39  C   UNL d   1      57.896  15.403  -2.755  0.00  0.00     0.005 C 
ENDBRANCH  37  38
ENDBRANCH  29  37
ENDBRANCH   1  29
TORSDOF 10
ENDMDL
MODEL 3
REMARK VINA RESULT:    -7.031      2.314      4.795
REMARK INTER + INTRA:         -13.288
REMARK INTER:                 -10.555
REMARK INTRA:                  -2.733
REMARK UNBOUND:                -2.147
REMARK  10 active torsions:
REMARK  status: ('A' for Active; 'I' for Inactive)
REMARK    1  A    between atoms: C_3  and  C_2 
REMARK    2  A    between atoms: C_4  and  C_3 
REMARK    3  A    between atoms: C_4  and  C_6 
REMARK    4  A    between atoms: C_4  and  N_5 
REMARK    5  A    between atoms: S_7  and  N_5 
REMARK    6  A    between atoms: N_5  and  C_8 
REMARK    7  A    between atoms: S_7  and  C_11 
REMARK    8  A    between atoms: C_8  and  C_19 
REMARK    9  A    between atoms: C_29  and  C_30 
REMARK   10  A    between atoms: C_34  and  S_36 
ROOT
ATOM      1  N   UNL d   1      55.373  16.492  -4.044  0.00  0.00    -0.192 NA
ENDROOT
BRANCH   1   2
ATOM      2  S   UNL d   1      56.279  16.396  -5.592  0.00  0.00     0.263 S 
ATOM      3  O   UNL d   1      56.475  14.907  -5.919  0.00  0.00    -0.204 OA
ATOM      4  O   UNL d   1      57.714  16.855  -5.289  0.00  0.00    -0.204 OA
BRANCH   2   5
ATOM      5  C   UNL d   1      55.558  17.282  -6.966  0.00  0.00     0.183 A 
ATOM      6  C   UNL d   1      55.773  18.605  -7.281  0.00  0.00     0.136 A 
ATOM      7  N   UNL d   1      55.015  18.891  -8.352  0.00  0.00    -0.353 N 
ATOM      8  C   UNL d   1      54.904  20.174  -9.033  0.00  0.00     0.156 C 
ATOM      9  C   UNL d   1      54.366  17.754  -8.670  0.00  0.00     0.210 A 
ATOM     10  N   UNL d   1      54.677  16.743  -7.832  0.00  0.00    -0.229 NA
ENDBRANCH   2   5
ENDBRANCH   1   2
BRANCH   1  11
ATOM     11  C   UNL d   1      54.576  17.738  -3.954  0.00  0.00     0.147 C 
BRANCH  11  12
ATOM     12  C   UNL d   1      53.084  17.452  -3.934  0.00  0.00    -0.038 A 
ATOM     13  C   UNL d   1      52.205  18.008  -2.974  0.00  0.00    -0.054 A 
ATOM     14  C   UNL d   1      52.657  18.968  -1.906  0.00  0.00     0.049 C 
ATOM     15  C   UNL d   1      50.842  17.665  -2.998  0.00  0.00     0.019 A 
ATOM     16  C   UNL d   1      50.307  16.778  -3.962  0.00  0.00    -0.025 A 
ATOM     17  C   UNL d   1      51.206  16.252  -4.916  0.00  0.00     0.013 A 
ATOM     18  C   UNL d   1      52.559  16.585  -4.901  0.00  0.00     0.010 A 
BRANCH  16  19
ATOM     19  C   UNL d   1      48.837  16.404  -3.970  0.00  0.00    -0.025 A 
ATOM     20  C   UNL d   1      48.417  15.060  -4.139  0.00  0.00     0.012 A 
ATOM     21  C   UNL d   1      47.062  14.718  -4.146  0.00  0.00     0.002 A 
ATOM     22  C   UNL d   1      46.088  15.698  -3.986  0.00  0.00     0.023 A 
ATOM     23  C   UNL d   1      46.463  17.030  -3.814  0.00  0.00     0.059 A 
ATOM     24  C   UNL d   1      47.820  17.379  -3.807  0.00  0.00     0.035 A 
BRANCH  23  25
ATOM     25  S   UNL d   1      45.210  18.300  -3.618  0.00  0.00     0.171 S 
ATOM     26  O   UNL d   1      45.571  19.446  -4.576  0.00  0.00    -0.223 OA
ATOM     27  C   UNL d   1      43.419  18.035  -3.735  0.00  0.00     0.167 C 
ATOM     28  O   UNL d   1      45.487  19.023  -2.290  0.00  0.00    -0.223 OA
ENDBRANCH  23  25
ENDBRANCH  16  19
ENDBRANCH  11  12
ENDBRANCH   1  11
BRANCH   1  29
ATOM     29  C   UNL d   1      56.208  16.211  -2.844  0.00  0.00     0.108 C 
BRANCH  29  30
ATOM     30  C   UNL d   1      55.826  14.846  -2.284  0.00  0.00    -0.026 A 
ATOM     31  C   UNL d   1      56.775  13.923  -1.813  0.00  0.00    -0.013 A 
ATOM     32  C   UNL d   1      58.264  14.088  -1.750  0.00  0.00     0.057 C 
ATOM     33  S   UNL d   1      55.984  12.538  -1.281  0.00  0.00    -0.100 SA
ATOM     34  C   UNL d   1      54.436  13.076  -1.639  0.00  0.00    -0.020 A 
ATOM     35  C   UNL d   1      53.181  12.302  -1.415  0.00  0.00     0.056 C 
ATOM     36  C   UNL d   1      54.509  14.352  -2.180  0.00  0.00     0.024 A 
ENDBRANCH  29  30
BRANCH  29  37
ATOM     37  C   UNL d   1      56.185  17.374  -1.809  0.00  0.00     0.025 C 
BRANCH  37  38
ATOM     38  C   UNL d   1      57.599  17.815  -1.387  0.00  0.00    -0.003 C 
ATOM     39  C   UNL d   1      57.898  17.391   0.048  0.00  0.00     0.005 C 
ENDBRANCH  37  38
ENDBRANCH  29  37
ENDBRANCH   1  29
TORSDOF 10
ENDMDL
MODEL 4
REMARK VINA RESULT:    -6.709      2.299      3.304
REMARK INTER + INTRA:         -12.777
REMARK INTER:                 -10.100
REMARK INTRA:                  -2.678
REMARK UNBOUND:                -2.147
REMARK  10 active torsions:
REMARK  status: ('A' for Active; 'I' for Inactive)
REMARK    1  A    between atoms: C_3  and  C_2 
REMARK    2  A    between atoms: C_4  and  C_3 
REMARK    3  A    between atoms: C_4  and  C_6 
REMARK    4  A    between atoms: C_4  and  N_5 
REMARK    5  A    between atoms: S_7  and  N_5 
REMARK    6  A    between atoms: N_5  and  C_8 
REMARK    7  A    between atoms: S_7  and  C_11 
REMARK    8  A    between atoms: C_8  and  C_19 
REMARK    9  A    between atoms: C_29  and  C_30 
REMARK   10  A    between atoms: C_34  and  S_36 
ROOT
ATOM      1  N   UNL d   1      54.902  18.681  -4.146  0.00  0.00    -0.192 NA
ENDROOT
BRANCH   1   2
ATOM      2  S   UNL d   1      55.362  20.398  -3.892  0.00  0.00     0.263 S 
ATOM      3  O   UNL d   1      55.409  20.643  -2.375  0.00  0.00    -0.204 OA
ATOM      4  O   UNL d   1      54.153  21.244  -4.322  0.00  0.00    -0.204 OA
BRANCH   2   5
ATOM      5  C   UNL d   1      56.875  20.919  -4.689  0.00  0.00     0.183 A 
ATOM      6  C   UNL d   1      58.072  21.184  -4.064  0.00  0.00     0.136 A 
ATOM      7  N   UNL d   1      58.937  21.586  -5.009  0.00  0.00    -0.353 N 
ATOM      8  C   UNL d   1      60.325  21.988  -4.817  0.00  0.00     0.156 C 
ATOM      9  C   UNL d   1      58.265  21.555  -6.175  0.00  0.00     0.210 A 
ATOM     10  N   UNL d   1      56.988  21.150  -6.012  0.00  0.00    -0.229 NA
ENDBRANCH   2   5
ENDBRANCH   1   2
BRANCH   1  11
ATOM     11  C   UNL d   1      54.293  18.092  -2.930  0.00  0.00     0.147 C 
BRANCH  11  12
ATOM     12  C   UNL d   1      52.829  17.746  -3.145  0.00  0.00    -0.038 A 
ATOM     13  C   UNL d   1      51.770  18.473  -2.551  0.00  0.00    -0.054 A 
ATOM     14  C   UNL d   1      51.990  19.683  -1.683  0.00  0.00     0.049 C 
ATOM     15  C   UNL d   1      50.441  18.068  -2.768  0.00  0.00     0.019 A 
ATOM     16  C   UNL d   1      50.118  16.949  -3.572  0.00  0.00    -0.025 A 
ATOM     17  C   UNL d   1      51.195  16.254  -4.164  0.00  0.00     0.013 A 
ATOM     18  C   UNL d   1      52.516  16.646  -3.955  0.00  0.00     0.010 A 
BRANCH  16  19
ATOM     19  C   UNL d   1      48.681  16.513  -3.787  0.00  0.00    -0.025 A 
ATOM     20  C   UNL d   1      48.360  15.182  -4.159  0.00  0.00     0.012 A 
ATOM     21  C   UNL d   1      47.037  14.783  -4.356  0.00  0.00     0.002 A 
ATOM     22  C   UNL d   1      45.995  15.690  -4.192  0.00  0.00     0.023 A 
ATOM     23  C   UNL d   1      46.272  17.007  -3.824  0.00  0.00     0.059 A 
ATOM     24  C   UNL d   1      47.597  17.414  -3.626  0.00  0.00     0.035 A 
BRANCH  23  25
ATOM     25  S   UNL d   1      44.933  18.185  -3.622  0.00  0.00     0.171 S 
ATOM     26  O   UNL d   1      45.158  19.309  -4.645  0.00  0.00    -0.223 OA
ATOM     27  C   UNL d   1      43.165  17.779  -3.638  0.00  0.00     0.167 C 
ATOM     28  O   UNL d   1      45.213  18.989  -2.342  0.00  0.00    -0.223 OA
ENDBRANCH  23  25
ENDBRANCH  16  19
ENDBRANCH  11  12
ENDBRANCH   1  11
BRANCH   1  29
ATOM     29  C   UNL d   1      55.984  17.855  -4.750  0.00  0.00     0.108 C 
BRANCH  29  30
ATOM     30  C   UNL d   1      55.773  17.789  -6.258  0.00  0.00    -0.026 A 
ATOM     31  C   UNL d   1      56.835  17.693  -7.173  0.00  0.00    -0.013 A 
ATOM     32  C   UNL d   1      58.302  17.623  -6.872  0.00  0.00     0.057 C 
ATOM     33  S   UNL d   1      56.218  17.648  -8.736  0.00  0.00    -0.100 SA
ATOM     34  C   UNL d   1      54.605  17.752  -8.287  0.00  0.00    -0.020 A 
ATOM     35  C   UNL d   1      53.448  17.772  -9.227  0.00  0.00     0.056 C 
ATOM     36  C   UNL d   1      54.519  17.822  -6.903  0.00  0.00     0.024 A 
ENDBRANCH  29  30
BRANCH  29  37
ATOM     37  C   UNL d   1      56.150  16.474  -4.050  0.00  0.00     0.025 C 
BRANCH  37  38
ATOM     38  C   UNL d   1      57.290  16.471  -3.015  0.00  0.00    -0.003 C 
ATOM     39  C   UNL d   1      58.267  17.613  -3.276  0.00  0.00     0.005 C 
ENDBRANCH  37  38
ENDBRANCH  29  37
ENDBRANCH   1  29
TORSDOF 10
ENDMDL
MODEL 5
REMARK VINA RESULT:    -6.575      1.907      2.582
REMARK INTER + INTRA:         -12.566
REMARK INTER:                 -11.168
REMARK INTRA:                  -1.398
REMARK UNBOUND:                -2.147
REMARK  10 active torsions:
REMARK  status: ('A' for Active; 'I' for Inactive)
REMARK    1  A    between atoms: C_3  and  C_2 
REMARK    2  A    between atoms: C_4  and  C_3 
REMARK    3  A    between atoms: C_4  and  C_6 
REMARK    4  A    between atoms: C_4  and  N_5 
REMARK    5  A    between atoms: S_7  and  N_5 
REMARK    6  A    between atoms: N_5  and  C_8 
REMARK    7  A    between atoms: S_7  and  C_11 
REMARK    8  A    between atoms: C_8  and  C_19 
REMARK    9  A    between atoms: C_29  and  C_30 
REMARK   10  A    between atoms: C_34  and  S_36 
ROOT
ATOM      1  N   UNL d   1      54.833  18.360  -4.258  0.00  0.00    -0.192 NA
ENDROOT
BRANCH   1   2
ATOM      2  S   UNL d   1      54.517  19.297  -2.759  0.00  0.00     0.263 S 
ATOM      3  O   UNL d   1      53.018  19.630  -2.731  0.00  0.00    -0.204 OA
ATOM      4  O   UNL d   1      55.155  20.680  -2.965  0.00  0.00    -0.204 OA
BRANCH   2   5
ATOM      5  C   UNL d   1      55.049  18.523  -1.238  0.00  0.00     0.183 A 
ATOM      6  C   UNL d   1      55.996  17.532  -1.120  0.00  0.00     0.136 A 
ATOM      7  N   UNL d   1      56.069  17.199   0.178  0.00  0.00    -0.353 N 
ATOM      8  C   UNL d   1      56.925  16.184   0.780  0.00  0.00     0.156 C 
ATOM      9  C   UNL d   1      55.182  17.984   0.820  0.00  0.00     0.210 A 
ATOM     10  N   UNL d   1      54.534  18.811  -0.026  0.00  0.00    -0.229 NA
ENDBRANCH   2   5
ENDBRANCH   1   2
BRANCH   1  11
ATOM     11  C   UNL d   1      54.518  16.922  -4.082  0.00  0.00     0.147 C 
BRANCH  11  12
ATOM     12  C   UNL d   1      53.023  16.660  -4.159  0.00  0.00    -0.038 A 
ATOM     13  C   UNL d   1      52.296  16.690  -5.373  0.00  0.00    -0.054 A 
ATOM     14  C   UNL d   1      52.941  16.943  -6.709  0.00  0.00     0.049 C 
ATOM     15  C   UNL d   1      50.907  16.473  -5.357  0.00  0.00     0.019 A 
ATOM     16  C   UNL d   1      50.199  16.219  -4.158  0.00  0.00    -0.025 A 
ATOM     17  C   UNL d   1      50.954  16.180  -2.965  0.00  0.00     0.013 A 
ATOM     18  C   UNL d   1      52.331  16.394  -2.969  0.00  0.00     0.010 A 
BRANCH  16  19
ATOM     19  C   UNL d   1      48.698  16.002  -4.151  0.00  0.00    -0.025 A 
ATOM     20  C   UNL d   1      48.136  14.718  -4.364  0.00  0.00     0.012 A 
ATOM     21  C   UNL d   1      46.753  14.520  -4.357  0.00  0.00     0.002 A 
ATOM     22  C   UNL d   1      45.890  15.589  -4.140  0.00  0.00     0.023 A 
ATOM     23  C   UNL d   1      46.406  16.866  -3.924  0.00  0.00     0.059 A 
ATOM     24  C   UNL d   1      47.792  17.071  -3.931  0.00  0.00     0.035 A 
BRANCH  23  25
ATOM     25  S   UNL d   1      45.297  18.252  -3.654  0.00  0.00     0.171 S 
ATOM     26  O   UNL d   1      45.753  19.387  -4.584  0.00  0.00    -0.223 OA
ATOM     27  C   UNL d   1      43.486  18.178  -3.732  0.00  0.00     0.167 C 
ATOM     28  O   UNL d   1      45.679  18.896  -2.312  0.00  0.00    -0.223 OA
ENDBRANCH  23  25
ENDBRANCH  16  19
ENDBRANCH  11  12
ENDBRANCH   1  11
BRANCH   1  29
ATOM     29  C   UNL d   1      56.170  18.624  -4.858  0.00  0.00     0.108 C 
BRANCH  29  30
ATOM     30  C   UNL d   1      55.981  19.214  -6.251  0.00  0.00    -0.026 A 
ATOM     31  C   UNL d   1      56.078  18.447  -7.424  0.00  0.00    -0.013 A 
ATOM     32  C   UNL d   1      56.352  16.978  -7.539  0.00  0.00     0.057 C 
ATOM     33  S   UNL d   1      55.815  19.437  -8.757  0.00  0.00    -0.100 SA
ATOM     34  C   UNL d   1      55.579  20.847  -7.879  0.00  0.00    -0.020 A 
ATOM     35  C   UNL d   1      55.291  22.189  -8.464  0.00  0.00     0.056 C 
ATOM     36  C   UNL d   1      55.700  20.569  -6.525  0.00  0.00     0.024 A 
ENDBRANCH  29  30
BRANCH  29  37
ATOM     37  C   UNL d   1      57.114  17.387  -4.794  0.00  0.00     0.025 C 
BRANCH  37  38
ATOM     38  C   UNL d   1      58.261  17.573  -3.784  0.00  0.00    -0.003 C 
ATOM     39  C   UNL d   1      58.607  19.049  -3.616  0.00  0.00     0.005 C 
ENDBRANCH  37  38
ENDBRANCH  29  37
ENDBRANCH   1  29
TORSDOF 10
ENDMDL
MODEL 6
REMARK VINA RESULT:    -6.438      1.924      2.867
REMARK INTER + INTRA:         -12.348
REMARK INTER:                 -10.122
REMARK INTRA:                  -2.226
REMARK UNBOUND:                -2.147
REMARK  10 active torsions:
REMARK  status: ('A' for Active; 'I' for Inactive)
REMARK    1  A    between atoms: C_3  and  C_2 
REMARK    2  A    between atoms: C_4  and  C_3 
REMARK    3  A    between atoms: C_4  and  C_6 
REMARK    4  A    between atoms: C_4  and  N_5 
REMARK    5  A    between atoms: S_7  and  N_5 
REMARK    6  A    between atoms: N_5  and  C_8 
REMARK    7  A    between atoms: S_7  and  C_11 
REMARK    8  A    between atoms: C_8  and  C_19 
REMARK    9  A    between atoms: C_29  and  C_30 
REMARK   10  A    between atoms: C_34  and  S_36 
ROOT
ATOM      1  N   UNL d   1      54.909  17.507  -3.714  0.00  0.00    -0.192 NA
ENDROOT
BRANCH   1   2
ATOM      2  S   UNL d   1      55.385  19.178  -3.260  0.00  0.00     0.263 S 
ATOM      3  O   UNL d   1      54.874  19.431  -1.833  0.00  0.00    -0.204 OA
ATOM      4  O   UNL d   1      54.507  20.125  -4.094  0.00  0.00    -0.204 OA
BRANCH   2   5
ATOM      5  C   UNL d   1      57.126  19.554  -3.412  0.00  0.00     0.183 A 
ATOM      6  C   UNL d   1      57.682  20.499  -4.245  0.00  0.00     0.136 A 
ATOM      7  N   UNL d   1      59.013  20.436  -4.090  0.00  0.00    -0.353 N 
ATOM      8  C   UNL d   1      60.018  21.238  -4.777  0.00  0.00     0.156 C 
ATOM      9  C   UNL d   1      59.243  19.473  -3.177  0.00  0.00     0.210 A 
ATOM     10  N   UNL d   1      58.098  18.907  -2.740  0.00  0.00    -0.229 NA
ENDBRANCH   2   5
ENDBRANCH   1   2
BRANCH   1  11
ATOM     11  C   UNL d   1      54.278  16.790  -2.580  0.00  0.00     0.147 C 
BRANCH  11  12
ATOM     12  C   UNL d   1      52.798  16.546  -2.822  0.00  0.00    -0.038 A 
ATOM     13  C   UNL d   1      52.182  15.286  -2.628  0.00  0.00    -0.054 A 
ATOM     14  C   UNL d   1      52.925  14.079  -2.124  0.00  0.00     0.049 C 
ATOM     15  C   UNL d   1      50.814  15.130  -2.910  0.00  0.00     0.019 A 
ATOM     16  C   UNL d   1      50.017  16.200  -3.383  0.00  0.00    -0.025 A 
ATOM     17  C   UNL d   1      50.656  17.448  -3.551  0.00  0.00     0.013 A 
ATOM     18  C   UNL d   1      52.012  17.614  -3.275  0.00  0.00     0.010 A 
BRANCH  16  19
ATOM     19  C   UNL d   1      48.544  16.016  -3.698  0.00  0.00    -0.025 A 
ATOM     20  C   UNL d   1      48.037  14.777  -4.164  0.00  0.00     0.012 A 
ATOM     21  C   UNL d   1      46.680  14.610  -4.453  0.00  0.00     0.002 A 
ATOM     22  C   UNL d   1      45.791  15.667  -4.289  0.00  0.00     0.023 A 
ATOM     23  C   UNL d   1      46.252  16.900  -3.830  0.00  0.00     0.059 A 
ATOM     24  C   UNL d   1      47.612  17.074  -3.539  0.00  0.00     0.035 A 
BRANCH  23  25
ATOM     25  S   UNL d   1      45.111  18.270  -3.627  0.00  0.00     0.171 S 
ATOM     26  O   UNL d   1      45.507  19.347  -4.649  0.00  0.00    -0.223 OA
ATOM     27  C   UNL d   1      43.301  18.141  -3.646  0.00  0.00     0.167 C 
ATOM     28  O   UNL d   1      45.510  19.020  -2.346  0.00  0.00    -0.223 OA
ENDBRANCH  23  25
ENDBRANCH  16  19
ENDBRANCH  11  12
ENDBRANCH   1  11
BRANCH   1  29
ATOM     29  C   UNL d   1      55.989  16.742  -4.395  0.00  0.00     0.108 C 
BRANCH  29  30
ATOM     30  C   UNL d   1      56.022  17.136  -5.867  0.00  0.00    -0.026 A 
ATOM     31  C   UNL d   1      54.911  17.004  -6.717  0.00  0.00    -0.013 A 
ATOM     32  C   UNL d   1      53.543  16.499  -6.367  0.00  0.00     0.057 C 
ATOM     33  S   UNL d   1      55.325  17.532  -8.258  0.00  0.00    -0.100 SA
ATOM     34  C   UNL d   1      56.911  17.930  -7.882  0.00  0.00    -0.020 A 
ATOM     35  C   UNL d   1      57.911  18.483  -8.841  0.00  0.00     0.056 C 
ATOM     36  C   UNL d   1      57.145  17.659  -6.541  0.00  0.00     0.024 A 
ENDBRANCH  29  30
BRANCH  29  37
ATOM     37  C   UNL d   1      55.903  15.210  -4.129  0.00  0.00     0.025 C 
BRANCH  37  38
ATOM     38  C   UNL d   1      57.271  14.594  -3.782  0.00  0.00    -0.003 C 
ATOM     39  C   UNL d   1      58.117  14.401  -5.036  0.00  0.00     0.005 C 
ENDBRANCH  37  38
ENDBRANCH  29  37
ENDBRANCH   1  29
TORSDOF 10
ENDMDL
MODEL 7
REMARK VINA RESULT:    -6.408      2.211      4.682
REMARK INTER + INTRA:         -12.301
REMARK INTER:                  -9.986
REMARK INTRA:                  -2.315
REMARK UNBOUND:                -2.147
REMARK  10 active torsions:
REMARK  status: ('A' for Active; 'I' for Inactive)
REMARK    1  A    between atoms: C_3  and  C_2 
REMARK    2  A    between atoms: C_4  and  C_3 
REMARK    3  A    between atoms: C_4  and  C_6 
REMARK    4  A    between atoms: C_4  and  N_5 
REMARK    5  A    between atoms: S_7  and  N_5 
REMARK    6  A    between atoms: N_5  and  C_8 
REMARK    7  A    between atoms: S_7  and  C_11 
REMARK    8  A    between atoms: C_8  and  C_19 
REMARK    9  A    between atoms: C_29  and  C_30 
REMARK   10  A    between atoms: C_34  and  S_36 
ROOT
ATOM      1  N   UNL d   1      55.282  17.158  -3.809  0.00  0.00    -0.192 NA
ENDROOT
BRANCH   1   2
ATOM      2  S   UNL d   1      55.659  17.921  -5.391  0.00  0.00     0.263 S 
ATOM      3  O   UNL d   1      55.516  19.440  -5.215  0.00  0.00    -0.204 OA
ATOM      4  O   UNL d   1      54.486  17.589  -6.328  0.00  0.00    -0.204 OA
BRANCH   2   5
ATOM      5  C   UNL d   1      57.240  17.486  -6.101  0.00  0.00     0.183 A 
ATOM      6  C   UNL d   1      58.461  18.017  -5.750  0.00  0.00     0.136 A 
ATOM      7  N   UNL d   1      59.385  17.457  -6.546  0.00  0.00    -0.353 N 
ATOM      8  C   UNL d   1      60.818  17.722  -6.551  0.00  0.00     0.156 C 
ATOM      9  C   UNL d   1      58.725  16.604  -7.352  0.00  0.00     0.210 A 
ATOM     10  N   UNL d   1      57.398  16.600  -7.104  0.00  0.00    -0.229 NA
ENDBRANCH   2   5
ENDBRANCH   1   2
BRANCH   1  11
ATOM     11  C   UNL d   1      54.409  18.022  -2.979  0.00  0.00     0.147 C 
BRANCH  11  12
ATOM     12  C   UNL d   1      52.939  17.687  -3.169  0.00  0.00    -0.038 A 
ATOM     13  C   UNL d   1      51.894  18.452  -2.599  0.00  0.00    -0.054 A 
ATOM     14  C   UNL d   1      52.137  19.693  -1.783  0.00  0.00     0.049 C 
ATOM     15  C   UNL d   1      50.559  18.056  -2.790  0.00  0.00     0.019 A 
ATOM     16  C   UNL d   1      50.215  16.910  -3.545  0.00  0.00    -0.025 A 
ATOM     17  C   UNL d   1      51.279  16.176  -4.115  0.00  0.00     0.013 A 
ATOM     18  C   UNL d   1      52.606  16.559  -3.931  0.00  0.00     0.010 A 
BRANCH  16  19
ATOM     19  C   UNL d   1      48.771  16.484  -3.733  0.00  0.00    -0.025 A 
ATOM     20  C   UNL d   1      48.430  15.144  -4.046  0.00  0.00     0.012 A 
ATOM     21  C   UNL d   1      47.100  14.754  -4.218  0.00  0.00     0.002 A 
ATOM     22  C   UNL d   1      46.072  15.682  -4.085  0.00  0.00     0.023 A 
ATOM     23  C   UNL d   1      46.368  17.008  -3.774  0.00  0.00     0.059 A 
ATOM     24  C   UNL d   1      47.701  17.406  -3.601  0.00  0.00     0.035 A 
BRANCH  23  25
ATOM     25  S   UNL d   1      45.046  18.212  -3.611  0.00  0.00     0.171 S 
ATOM     26  O   UNL d   1      45.327  19.334  -4.623  0.00  0.00    -0.223 OA
ATOM     27  C   UNL d   1      43.272  17.840  -3.688  0.00  0.00     0.167 C 
ATOM     28  O   UNL d   1      45.300  19.006  -2.320  0.00  0.00    -0.223 OA
ENDBRANCH  23  25
ENDBRANCH  16  19
ENDBRANCH  11  12
ENDBRANCH   1  11
BRANCH   1  29
ATOM     29  C   UNL d   1      56.479  16.633  -3.098  0.00  0.00     0.108 C 
BRANCH  29  30
ATOM     30  C   UNL d   1      56.356  15.119  -2.971  0.00  0.00    -0.026 A 
ATOM     31  C   UNL d   1      57.327  14.231  -3.465  0.00  0.00    -0.013 A 
ATOM     32  C   UNL d   1      58.613  14.570  -4.158  0.00  0.00     0.057 C 
ATOM     33  S   UNL d   1      56.848  12.652  -3.147  0.00  0.00    -0.100 SA
ATOM     34  C   UNL d   1      55.409  13.060  -2.387  0.00  0.00    -0.020 A 
ATOM     35  C   UNL d   1      54.424  12.089  -1.827  0.00  0.00     0.056 C 
ATOM     36  C   UNL d   1      55.278  14.441  -2.365  0.00  0.00     0.024 A 
ENDBRANCH  29  30
BRANCH  29  37
ATOM     37  C   UNL d   1      56.762  17.382  -1.761  0.00  0.00     0.025 C 
BRANCH  37  38
ATOM     38  C   UNL d   1      58.132  18.084  -1.758  0.00  0.00    -0.003 C 
ATOM     39  C   UNL d   1      58.097  19.355  -2.601  0.00  0.00     0.005 C 
ENDBRANCH  37  38
ENDBRANCH  29  37
ENDBRANCH   1  29
TORSDOF 10
ENDMDL
MODEL 8
REMARK VINA RESULT:    -6.224      1.746      2.178
REMARK INTER + INTRA:         -12.009
REMARK INTER:                  -9.862
REMARK INTRA:                  -2.147
REMARK UNBOUND:                -2.147
REMARK  10 active torsions:
REMARK  status: ('A' for Active; 'I' for Inactive)
REMARK    1  A    between atoms: C_3  and  C_2 
REMARK    2  A    between atoms: C_4  and  C_3 
REMARK    3  A    between atoms: C_4  and  C_6 
REMARK    4  A    between atoms: C_4  and  N_5 
REMARK    5  A    between atoms: S_7  and  N_5 
REMARK    6  A    between atoms: N_5  and  C_8 
REMARK    7  A    between atoms: S_7  and  C_11 
REMARK    8  A    between atoms: C_8  and  C_19 
REMARK    9  A    between atoms: C_29  and  C_30 
REMARK   10  A    between atoms: C_34  and  S_36 
ROOT
ATOM      1  N   UNL d   1      54.819  18.998  -4.149  0.00  0.00    -0.192 NA
ENDROOT
BRANCH   1   2
ATOM      2  S   UNL d   1      54.884  20.462  -3.111  0.00  0.00     0.263 S 
ATOM      3  O   UNL d   1      54.337  21.637  -3.937  0.00  0.00    -0.204 OA
ATOM      4  O   UNL d   1      56.369  20.829  -2.966  0.00  0.00    -0.204 OA
BRANCH   2   5
ATOM      5  C   UNL d   1      54.059  20.327  -1.531  0.00  0.00     0.183 A 
ATOM      6  C   UNL d   1      52.788  20.768  -1.239  0.00  0.00     0.136 A 
ATOM      7  N   UNL d   1      52.566  20.517   0.060  0.00  0.00    -0.353 N 
ATOM      8  C   UNL d   1      51.361  20.823   0.821  0.00  0.00     0.156 C 
ATOM      9  C   UNL d   1      53.684  19.931   0.530  0.00  0.00     0.210 A 
ATOM     10  N   UNL d   1      54.626  19.802  -0.428  0.00  0.00    -0.229 NA
ENDBRANCH   2   5
ENDBRANCH   1   2
BRANCH   1  11
ATOM     11  C   UNL d   1      54.475  17.787  -3.366  0.00  0.00     0.147 C 
BRANCH  11  12
ATOM     12  C   UNL d   1      53.033  17.364  -3.586  0.00  0.00    -0.038 A 
ATOM     13  C   UNL d   1      52.598  16.678  -4.744  0.00  0.00    -0.054 A 
ATOM     14  C   UNL d   1      53.530  16.265  -5.851  0.00  0.00     0.049 C 
ATOM     15  C   UNL d   1      51.238  16.353  -4.891  0.00  0.00     0.019 A 
ATOM     16  C   UNL d   1      50.275  16.687  -3.910  0.00  0.00    -0.025 A 
ATOM     17  C   UNL d   1      50.742  17.358  -2.758  0.00  0.00     0.013 A 
ATOM     18  C   UNL d   1      52.087  17.684  -2.602  0.00  0.00     0.010 A 
BRANCH  16  19
ATOM     19  C   UNL d   1      48.808  16.345  -4.086  0.00  0.00    -0.025 A 
ATOM     20  C   UNL d   1      48.395  15.059  -4.518  0.00  0.00     0.012 A 
ATOM     21  C   UNL d   1      47.043  14.746  -4.679  0.00  0.00     0.002 A 
ATOM     22  C   UNL d   1      46.064  15.699  -4.417  0.00  0.00     0.023 A 
ATOM     23  C   UNL d   1      46.432  16.974  -3.987  0.00  0.00     0.059 A 
ATOM     24  C   UNL d   1      47.786  17.294  -3.825  0.00  0.00     0.035 A 
BRANCH  23  25
ATOM     25  S   UNL d   1      45.173  18.211  -3.659  0.00  0.00     0.171 S 
ATOM     26  O   UNL d   1      45.411  19.373  -4.636  0.00  0.00    -0.223 OA
ATOM     27  C   UNL d   1      43.386  17.902  -3.604  0.00  0.00     0.167 C 
ATOM     28  O   UNL d   1      45.560  18.931  -2.357  0.00  0.00    -0.223 OA
ENDBRANCH  23  25
ENDBRANCH  16  19
ENDBRANCH  11  12
ENDBRANCH   1  11
BRANCH   1  29
ATOM     29  C   UNL d   1      56.005  18.838  -5.034  0.00  0.00     0.108 C 
BRANCH  29  30
ATOM     30  C   UNL d   1      55.790  19.654  -6.303  0.00  0.00    -0.026 A 
ATOM     31  C   UNL d   1      56.705  20.621  -6.752  0.00  0.00    -0.013 A 
ATOM     32  C   UNL d   1      58.010  21.012  -6.125  0.00  0.00     0.057 C 
ATOM     33  S   UNL d   1      56.129  21.312  -8.172  0.00  0.00    -0.100 SA
ATOM     34  C   UNL d   1      54.717  20.409  -8.242  0.00  0.00    -0.020 A 
ATOM     35  C   UNL d   1      53.674  20.520  -9.303  0.00  0.00     0.056 C 
ATOM     36  C   UNL d   1      54.671  19.547  -7.156  0.00  0.00     0.024 A 
ENDBRANCH  29  30
BRANCH  29  37
ATOM     37  C   UNL d   1      56.384  17.346  -5.270  0.00  0.00     0.025 C 
BRANCH  37  38
ATOM     38  C   UNL d   1      57.902  17.142  -5.428  0.00  0.00    -0.003 C 
ATOM     39  C   UNL d   1      58.211  16.246  -6.623  0.00  0.00     0.005 C 
ENDBRANCH  37  38
ENDBRANCH  29  37
ENDBRANCH   1  29
TORSDOF 10
ENDMDL
MODEL 9
REMARK VINA RESULT:    -6.128      2.537      3.791
REMARK INTER + INTRA:         -11.857
REMARK INTER:                  -9.609
REMARK INTRA:                  -2.248
REMARK UNBOUND:                -2.147
REMARK  10 active torsions:
REMARK  status: ('A' for Active; 'I' for Inactive)
REMARK    1  A    between atoms: C_3  and  C_2 
REMARK    2  A    between atoms: C_4  and  C_3 
REMARK    3  A    between atoms: C_4  and  C_6 
REMARK    4  A    between atoms: C_4  and  N_5 
REMARK    5  A    between atoms: S_7  and  N_5 
REMARK    6  A    between atoms: N_5  and  C_8 
REMARK    7  A    between atoms: S_7  and  C_11 
REMARK    8  A    between atoms: C_8  and  C_19 
REMARK    9  A    between atoms: C_29  and  C_30 
REMARK   10  A    between atoms: C_34  and  S_36 
ROOT
ATOM      1  N   UNL d   1      56.527  18.744  -5.779  0.00  0.00    -0.192 NA
ENDROOT
BRANCH   1   2
ATOM      2  S   UNL d   1      57.149  19.757  -4.433  0.00  0.00     0.263 S 
ATOM      3  O   UNL d   1      58.228  20.683  -5.014  0.00  0.00    -0.204 OA
ATOM      4  O   UNL d   1      57.971  18.826  -3.527  0.00  0.00    -0.204 OA
BRANCH   2   5
ATOM      5  C   UNL d   1      55.914  20.674  -3.522  0.00  0.00     0.183 A 
ATOM      6  C   UNL d   1      54.918  20.136  -2.739  0.00  0.00     0.136 A 
ATOM      7  N   UNL d   1      54.182  21.157  -2.270  0.00  0.00    -0.353 N 
ATOM      8  C   UNL d   1      53.010  21.072  -1.408  0.00  0.00     0.156 C 
ATOM      9  C   UNL d   1      54.736  22.281  -2.763  0.00  0.00     0.210 A 
ATOM     10  N   UNL d   1      55.806  22.017  -3.542  0.00  0.00    -0.229 NA
ENDBRANCH   2   5
ENDBRANCH   1   2
BRANCH   1  11
ATOM     11  C   UNL d   1      56.438  17.315  -5.392  0.00  0.00     0.147 C 
BRANCH  11  12
ATOM     12  C   UNL d   1      55.048  16.951  -4.898  0.00  0.00    -0.038 A 
ATOM     13  C   UNL d   1      53.948  16.752  -5.766  0.00  0.00    -0.054 A 
ATOM     14  C   UNL d   1      54.058  16.843  -7.264  0.00  0.00     0.049 C 
ATOM     15  C   UNL d   1      52.683  16.454  -5.228  0.00  0.00     0.019 A 
ATOM     16  C   UNL d   1      52.467  16.338  -3.835  0.00  0.00    -0.025 A 
ATOM     17  C   UNL d   1      53.587  16.526  -2.995  0.00  0.00     0.013 A 
ATOM     18  C   UNL d   1      54.845  16.823  -3.517  0.00  0.00     0.010 A 
BRANCH  16  19
ATOM     19  C   UNL d   1      51.095  16.030  -3.266  0.00  0.00    -0.025 A 
ATOM     20  C   UNL d   1      50.870  14.890  -2.453  0.00  0.00     0.012 A 
ATOM     21  C   UNL d   1      49.606  14.609  -1.930  0.00  0.00     0.002 A 
ATOM     22  C   UNL d   1      48.530  15.449  -2.198  0.00  0.00     0.023 A 
ATOM     23  C   UNL d   1      48.714  16.582  -2.991  0.00  0.00     0.059 A 
ATOM     24  C   UNL d   1      49.979  16.869  -3.519  0.00  0.00     0.035 A 
BRANCH  23  25
ATOM     25  S   UNL d   1      47.326  17.664  -3.350  0.00  0.00     0.171 S 
ATOM     26  O   UNL d   1      47.766  18.606  -4.481  0.00  0.00    -0.223 OA
ATOM     27  C   UNL d   1      45.637  17.116  -3.720  0.00  0.00     0.167 C 
ATOM     28  O   UNL d   1      47.242  18.699  -2.217  0.00  0.00    -0.223 OA
ENDBRANCH  23  25
ENDBRANCH  16  19
ENDBRANCH  11  12
ENDBRANCH   1  11
BRANCH   1  29
ATOM     29  C   UNL d   1      57.215  18.985  -7.077  0.00  0.00     0.108 C 
BRANCH  29  30
ATOM     30  C   UNL d   1      56.505  20.115  -7.812  0.00  0.00    -0.026 A 
ATOM     31  C   UNL d   1      57.187  21.065  -8.591  0.00  0.00    -0.013 A 
ATOM     32  C   UNL d   1      58.660  21.146  -8.858  0.00  0.00     0.057 C 
ATOM     33  S   UNL d   1      56.078  22.151  -9.237  0.00  0.00    -0.100 SA
ATOM     34  C   UNL d   1      54.723  21.446  -8.543  0.00  0.00    -0.020 A 
ATOM     35  C   UNL d   1      53.321  21.930  -8.703  0.00  0.00     0.056 C 
ATOM     36  C   UNL d   1      55.113  20.344  -7.794  0.00  0.00     0.024 A 
ENDBRANCH  29  30
BRANCH  29  37
ATOM     37  C   UNL d   1      57.408  17.682  -7.907  0.00  0.00     0.025 C 
BRANCH  37  38
ATOM     38  C   UNL d   1      58.822  17.091  -7.757  0.00  0.00    -0.003 C 
ATOM     39  C   UNL d   1      59.331  16.547  -9.088  0.00  0.00     0.005 C 
ENDBRANCH  37  38
ENDBRANCH  29  37
ENDBRANCH   1  29
TORSDOF 10
ENDMDL
