REMARK  10 active torsions:
REMARK  status: ('A' for Active; 'I' for Inactive)
REMARK    1  A    between atoms: C_3  and  C_2 
REMARK    2  A    between atoms: C_4  and  C_3 
REMARK    3  A    between atoms: C_4  and  C_6 
REMARK    4  A    between atoms: C_4  and  N_5 
REMARK    5  A    between atoms: S_7  and  N_5 
REMARK    6  A    between atoms: N_5  and  C_8 
REMARK    7  A    between atoms: S_7  and  C_11 
REMARK    8  A    between atoms: C_8  and  C_19 
REMARK    9  A    between atoms: C_29  and  C_30 
REMARK   10  A    between atoms: C_34  and  S_36 
ROOT
ATOM      1  N   UNL d   1       3.172   0.566  -1.200  0.00  0.00    -0.192 NA
ENDROOT
BRANCH   1   2
ATOM      2  S   UNL d   1       2.308   1.577   0.007  0.00  0.00     0.263 S 
ATOM      3  O   UNL d   1       3.266   2.698   0.439  0.00  0.00    -0.204 OA
ATOM      4  O   UNL d   1       2.196   0.732   1.286  0.00  0.00    -0.204 OA
BRANCH   2   5
ATOM      5  C   UNL d   1       0.728   2.227  -0.519  0.00  0.00     0.183 A 
ATOM      6  C   UNL d   1      -0.498   1.919   0.026  0.00  0.00     0.136 A 
ATOM      7  N   UNL d   1      -1.428   2.581  -0.680  0.00  0.00    -0.353 N 
ATOM      8  C   UNL d   1      -2.871   2.552  -0.478  0.00  0.00     0.156 C 
ATOM      9  C   UNL d   1      -0.764   3.274  -1.625  0.00  0.00     0.210 A 
ATOM     10  N   UNL d   1       0.569   3.075  -1.554  0.00  0.00    -0.229 NA
ENDBRANCH   2   5
ENDBRANCH   1   2
BRANCH   1  11
ATOM     11  C   UNL d   1       2.635  -0.815  -1.242  0.00  0.00     0.147 C 
BRANCH  11  12
ATOM     12  C   UNL d   1       1.148  -0.832  -1.553  0.00  0.00    -0.038 A 
ATOM     13  C   UNL d   1       0.609  -0.351  -2.770  0.00  0.00    -0.054 A 
ATOM     14  C   UNL d   1       1.460   0.186  -3.889  0.00  0.00     0.049 C 
ATOM     15  C   UNL d   1      -0.783  -0.366  -2.968  0.00  0.00     0.019 A 
ATOM     16  C   UNL d   1      -1.677  -0.855  -1.986  0.00  0.00    -0.025 A 
ATOM     17  C   UNL d   1      -1.108  -1.343  -0.789  0.00  0.00     0.013 A 
ATOM     18  C   UNL d   1       0.270  -1.332  -0.582  0.00  0.00     0.010 A 
BRANCH  16  19
ATOM     19  C   UNL d   1      -3.178  -0.853  -2.205  0.00  0.00    -0.025 A 
ATOM     20  C   UNL d   1      -4.078  -1.182  -1.160  0.00  0.00     0.012 A 
ATOM     21  C   UNL d   1      -5.460  -1.179  -1.364  0.00  0.00     0.002 A 
ATOM     22  C   UNL d   1      -5.987  -0.851  -2.609  0.00  0.00     0.023 A 
ATOM     23  C   UNL d   1      -5.133  -0.519  -3.660  0.00  0.00     0.059 A 
ATOM     24  C   UNL d   1      -3.746  -0.521  -3.462  0.00  0.00     0.035 A 
BRANCH  23  25
ATOM     25  S   UNL d   1      -5.807  -0.106  -5.272  0.00  0.00     0.171 S 
ATOM     26  O   UNL d   1      -5.014   1.099  -5.801  0.00  0.00    -0.223 OA
ATOM     27  C   UNL d   1      -6.019  -1.267  -6.650  0.00  0.00     0.167 C 
ATOM     28  O   UNL d   1      -7.155   0.596  -5.044  0.00  0.00    -0.223 OA
ENDBRANCH  23  25
ENDBRANCH  16  19
ENDBRANCH  11  12
ENDBRANCH   1  11
BRANCH   1  29
ATOM     29  C   UNL d   1       4.655   0.643  -1.093  0.00  0.00     0.108 C 
BRANCH  29  30
ATOM     30  C   UNL d   1       5.269   0.258  -2.434  0.00  0.00    -0.026 A 
ATOM     31  C   UNL d   1       5.119   1.038  -3.593  0.00  0.00    -0.013 A 
ATOM     32  C   UNL d   1       4.386   2.338  -3.736  0.00  0.00     0.057 C 
ATOM     33  S   UNL d   1       5.926   0.297  -4.868  0.00  0.00    -0.100 SA
ATOM     34  C   UNL d   1       6.473  -1.019  -3.983  0.00  0.00    -0.020 A 
ATOM     35  C   UNL d   1       7.295  -2.140  -4.524  0.00  0.00     0.056 C 
ATOM     36  C   UNL d   1       6.036  -0.902  -2.671  0.00  0.00     0.024 A 
ENDBRANCH  29  30
BRANCH  29  37
ATOM     37  C   UNL d   1       5.212  -0.141   0.132  0.00  0.00     0.025 C 
BRANCH  37  38
ATOM     38  C   UNL d   1       6.700   0.156   0.394  0.00  0.00    -0.003 C 
ATOM     39  C   UNL d   1       7.202  -0.605   1.617  0.00  0.00     0.005 C 
ENDBRANCH  37  38
ENDBRANCH  29  37
ENDBRANCH   1  29
TORSDOF 10
