MODEL 1
REMARK VINA RESULT:    -7.712      0.000      0.000
REMARK INTER + INTRA:         -13.653
REMARK INTER:                 -10.905
REMARK INTRA:                  -2.748
REMARK UNBOUND:                -0.982
REMARK  11 active torsions:
REMARK  status: ('A' for Active; 'I' for Inactive)
REMARK    1  A    between atoms: C_3  and  C_2 
REMARK    2  A    between atoms: C_4  and  C_3 
REMARK    3  A    between atoms: C_5  and  C_4 
REMARK    4  A    between atoms: C_5  and  C_7 
REMARK    5  A    between atoms: C_5  and  N_6 
REMARK    6  A    between atoms: S_8  and  N_6 
REMARK    7  A    between atoms: N_6  and  C_9 
REMARK    8  A    between atoms: S_8  and  C_12 
REMARK    9  A    between atoms: C_9  and  C_20 
REMARK   10  A    between atoms: C_30  and  C_31 
REMARK   11  A    between atoms: C_35  and  S_37 
ROOT
ATOM      1  N   UNL d   1      54.604  17.219  -3.616  0.00  0.00    -0.192 NA
ENDROOT
BRANCH   1   2
ATOM      2  S   UNL d   1      55.171  18.723  -2.808  0.00  0.00     0.263 S 
ATOM      3  O   UNL d   1      55.001  19.819  -3.872  0.00  0.00    -0.204 OA
ATOM      4  O   UNL d   1      56.701  18.647  -2.746  0.00  0.00    -0.204 OA
BRANCH   2   5
ATOM      5  C   UNL d   1      54.442  19.259  -1.259  0.00  0.00     0.183 A 
ATOM      6  C   UNL d   1      53.397  20.145  -1.129  0.00  0.00     0.136 A 
ATOM      7  N   UNL d   1      53.151  20.286   0.184  0.00  0.00    -0.353 N 
ATOM      8  C   UNL d   1      52.133  21.123   0.805  0.00  0.00     0.156 C 
ATOM      9  C   UNL d   1      54.038  19.497   0.821  0.00  0.00     0.210 A 
ATOM     10  N   UNL d   1      54.849  18.850  -0.040  0.00  0.00    -0.229 NA
ENDBRANCH   2   5
ENDBRANCH   1   2
BRANCH   1  11
ATOM     11  C   UNL d   1      53.987  16.302  -2.629  0.00  0.00     0.147 C 
BRANCH  11  12
ATOM     12  C   UNL d   1      52.509  16.122  -2.912  0.00  0.00    -0.038 A 
ATOM     13  C   UNL d   1      51.778  14.973  -2.533  0.00  0.00    -0.054 A 
ATOM     14  C   UNL d   1      52.430  13.821  -1.815  0.00  0.00     0.049 C 
ATOM     15  C   UNL d   1      50.404  14.896  -2.834  0.00  0.00     0.019 A 
ATOM     16  C   UNL d   1      49.724  15.935  -3.512  0.00  0.00    -0.025 A 
ATOM     17  C   UNL d   1      50.487  17.064  -3.886  0.00  0.00     0.013 A 
ATOM     18  C   UNL d   1      51.846  17.152  -3.590  0.00  0.00     0.010 A 
BRANCH  16  19
ATOM     19  C   UNL d   1      48.242  15.845  -3.826  0.00  0.00    -0.025 A 
ATOM     20  C   UNL d   1      47.667  14.658  -4.345  0.00  0.00     0.012 A 
ATOM     21  C   UNL d   1      46.303  14.579  -4.637  0.00  0.00     0.002 A 
ATOM     22  C   UNL d   1      45.473  15.675  -4.424  0.00  0.00     0.023 A 
ATOM     23  C   UNL d   1      46.004  16.861  -3.915  0.00  0.00     0.059 A 
ATOM     24  C   UNL d   1      47.372  16.946  -3.619  0.00  0.00     0.035 A 
BRANCH  23  25
ATOM     25  S   UNL d   1      44.935  18.280  -3.654  0.00  0.00     0.171 S 
ATOM     26  O   UNL d   1      45.374  19.371  -4.643  0.00  0.00    -0.223 OA
ATOM     27  C   UNL d   1      43.121  18.241  -3.650  0.00  0.00     0.167 C 
ATOM     28  O   UNL d   1      45.387  18.962  -2.353  0.00  0.00    -0.223 OA
ENDBRANCH  23  25
ENDBRANCH  16  19
ENDBRANCH  11  12
ENDBRANCH   1  11
BRANCH   1  29
ATOM     29  C   UNL d   1      55.566  16.517  -4.515  0.00  0.00     0.108 C 
BRANCH  29  30
ATOM     30  C   UNL d   1      55.409  16.876  -5.991  0.00  0.00    -0.026 A 
ATOM     31  C   UNL d   1      56.463  16.961  -6.921  0.00  0.00    -0.013 A 
ATOM     32  C   UNL d   1      57.934  16.768  -6.704  0.00  0.00     0.057 C 
ATOM     33  S   UNL d   1      55.830  17.357  -8.429  0.00  0.00    -0.100 SA
ATOM     34  C   UNL d   1      54.228  17.413  -7.942  0.00  0.00    -0.020 A 
ATOM     35  C   UNL d   1      53.064  17.723  -8.822  0.00  0.00     0.056 C 
ATOM     36  C   UNL d   1      54.156  17.124  -6.589  0.00  0.00     0.024 A 
ENDBRANCH  29  30
BRANCH  29  37
ATOM     37  C   UNL d   1      55.562  14.987  -4.278  0.00  0.00     0.026 C 
BRANCH  37  38
ATOM     38  C   UNL d   1      56.945  14.387  -3.938  0.00  0.00     0.002 C 
BRANCH  38  39
ATOM     39  C   UNL d   1      57.643  14.977  -2.699  0.00  0.00    -0.004 C 
ATOM     40  C   UNL d   1      57.139  14.384  -1.385  0.00  0.00     0.005 C 
ENDBRANCH  38  39
ENDBRANCH  37  38
ENDBRANCH  29  37
ENDBRANCH   1  29
TORSDOF 11
ENDMDL
MODEL 2
REMARK VINA RESULT:    -7.617      1.896      2.498
REMARK INTER + INTRA:         -13.497
REMARK INTER:                 -11.295
REMARK INTRA:                  -2.203
REMARK UNBOUND:                -0.982
REMARK  11 active torsions:
REMARK  status: ('A' for Active; 'I' for Inactive)
REMARK    1  A    between atoms: C_3  and  C_2 
REMARK    2  A    between atoms: C_4  and  C_3 
REMARK    3  A    between atoms: C_5  and  C_4 
REMARK    4  A    between atoms: C_5  and  C_7 
REMARK    5  A    between atoms: C_5  and  N_6 
REMARK    6  A    between atoms: S_8  and  N_6 
REMARK    7  A    between atoms: N_6  and  C_9 
REMARK    8  A    between atoms: S_8  and  C_12 
REMARK    9  A    between atoms: C_9  and  C_20 
REMARK   10  A    between atoms: C_30  and  C_31 
REMARK   11  A    between atoms: C_35  and  S_37 
ROOT
ATOM      1  N   UNL d   1      54.389  17.440  -3.765  0.00  0.00    -0.192 NA
ENDROOT
BRANCH   1   2
ATOM      2  S   UNL d   1      54.664  19.052  -3.016  0.00  0.00     0.263 S 
ATOM      3  O   UNL d   1      55.641  18.780  -1.862  0.00  0.00    -0.204 OA
ATOM      4  O   UNL d   1      53.399  19.396  -2.219  0.00  0.00    -0.204 OA
BRANCH   2   5
ATOM      5  C   UNL d   1      55.254  20.430  -4.002  0.00  0.00     0.183 A 
ATOM      6  C   UNL d   1      56.520  20.556  -4.526  0.00  0.00     0.136 A 
ATOM      7  N   UNL d   1      56.564  21.720  -5.193  0.00  0.00    -0.353 N 
ATOM      8  C   UNL d   1      57.700  22.280  -5.914  0.00  0.00     0.156 C 
ATOM      9  C   UNL d   1      55.344  22.276  -5.066  0.00  0.00     0.210 A 
ATOM     10  N   UNL d   1      54.512  21.505  -4.336  0.00  0.00    -0.229 NA
ENDBRANCH   2   5
ENDBRANCH   1   2
BRANCH   1  11
ATOM     11  C   UNL d   1      53.809  16.501  -2.776  0.00  0.00     0.147 C 
BRANCH  11  12
ATOM     12  C   UNL d   1      52.335  16.279  -3.044  0.00  0.00    -0.038 A 
ATOM     13  C   UNL d   1      51.635  15.120  -2.638  0.00  0.00    -0.054 A 
ATOM     14  C   UNL d   1      52.320  13.999  -1.901  0.00  0.00     0.049 C 
ATOM     15  C   UNL d   1      50.262  15.003  -2.927  0.00  0.00     0.019 A 
ATOM     16  C   UNL d   1      49.552  16.011  -3.621  0.00  0.00    -0.025 A 
ATOM     17  C   UNL d   1      50.284  17.151  -4.023  0.00  0.00     0.013 A 
ATOM     18  C   UNL d   1      51.642  17.279  -3.739  0.00  0.00     0.010 A 
BRANCH  16  19
ATOM     19  C   UNL d   1      48.070  15.878  -3.923  0.00  0.00    -0.025 A 
ATOM     20  C   UNL d   1      47.527  14.678  -4.449  0.00  0.00     0.012 A 
ATOM     21  C   UNL d   1      46.163  14.561  -4.729  0.00  0.00     0.002 A 
ATOM     22  C   UNL d   1      45.302  15.628  -4.498  0.00  0.00     0.023 A 
ATOM     23  C   UNL d   1      45.801  16.824  -3.980  0.00  0.00     0.059 A 
ATOM     24  C   UNL d   1      47.168  16.949  -3.697  0.00  0.00     0.035 A 
BRANCH  23  25
ATOM     25  S   UNL d   1      44.691  18.207  -3.696  0.00  0.00     0.171 S 
ATOM     26  O   UNL d   1      45.104  19.332  -4.657  0.00  0.00    -0.223 OA
ATOM     27  C   UNL d   1      42.879  18.117  -3.703  0.00  0.00     0.167 C 
ATOM     28  O   UNL d   1      45.116  18.873  -2.377  0.00  0.00    -0.223 OA
ENDBRANCH  23  25
ENDBRANCH  16  19
ENDBRANCH  11  12
ENDBRANCH   1  11
BRANCH   1  29
ATOM     29  C   UNL d   1      55.521  16.833  -4.524  0.00  0.00     0.108 C 
BRANCH  29  30
ATOM     30  C   UNL d   1      55.487  17.121  -6.023  0.00  0.00    -0.026 A 
ATOM     31  C   UNL d   1      56.616  17.182  -6.863  0.00  0.00    -0.013 A 
ATOM     32  C   UNL d   1      58.065  17.023  -6.513  0.00  0.00     0.057 C 
ATOM     33  S   UNL d   1      56.109  17.497  -8.437  0.00  0.00    -0.100 SA
ATOM     34  C   UNL d   1      54.471  17.548  -8.091  0.00  0.00    -0.020 A 
ATOM     35  C   UNL d   1      53.383  17.798  -9.080  0.00  0.00     0.056 C 
ATOM     36  C   UNL d   1      54.287  17.320  -6.737  0.00  0.00     0.024 A 
ENDBRANCH  29  30
BRANCH  29  37
ATOM     37  C   UNL d   1      55.674  15.322  -4.219  0.00  0.00     0.026 C 
BRANCH  37  38
ATOM     38  C   UNL d   1      56.975  14.946  -3.475  0.00  0.00     0.002 C 
BRANCH  38  39
ATOM     39  C   UNL d   1      57.113  13.463  -3.080  0.00  0.00    -0.004 C 
ATOM     40  C   UNL d   1      55.789  12.826  -2.662  0.00  0.00     0.005 C 
ENDBRANCH  38  39
ENDBRANCH  37  38
ENDBRANCH  29  37
ENDBRANCH   1  29
TORSDOF 11
ENDMDL
MODEL 3
REMARK VINA RESULT:    -7.544      2.461      4.857
REMARK INTER + INTRA:         -13.377
REMARK INTER:                 -10.583
REMARK INTRA:                  -2.794
REMARK UNBOUND:                -0.982
REMARK  11 active torsions:
REMARK  status: ('A' for Active; 'I' for Inactive)
REMARK    1  A    between atoms: C_3  and  C_2 
REMARK    2  A    between atoms: C_4  and  C_3 
REMARK    3  A    between atoms: C_5  and  C_4 
REMARK    4  A    between atoms: C_5  and  C_7 
REMARK    5  A    between atoms: C_5  and  N_6 
REMARK    6  A    between atoms: S_8  and  N_6 
REMARK    7  A    between atoms: N_6  and  C_9 
REMARK    8  A    between atoms: S_8  and  C_12 
REMARK    9  A    between atoms: C_9  and  C_20 
REMARK   10  A    between atoms: C_30  and  C_31 
REMARK   11  A    between atoms: C_35  and  S_37 
ROOT
ATOM      1  N   UNL d   1      55.399  16.497  -4.428  0.00  0.00    -0.192 NA
ENDROOT
BRANCH   1   2
ATOM      2  S   UNL d   1      56.266  16.780  -5.978  0.00  0.00     0.263 S 
ATOM      3  O   UNL d   1      56.738  15.385  -6.416  0.00  0.00    -0.204 OA
ATOM      4  O   UNL d   1      57.615  17.419  -5.625  0.00  0.00    -0.204 OA
BRANCH   2   5
ATOM      5  C   UNL d   1      55.448  17.604  -7.346  0.00  0.00     0.183 A 
ATOM      6  C   UNL d   1      55.379  18.965  -7.535  0.00  0.00     0.136 A 
ATOM      7  N   UNL d   1      54.685  19.178  -8.665  0.00  0.00    -0.353 N 
ATOM      8  C   UNL d   1      54.356  20.463  -9.268  0.00  0.00     0.156 C 
ATOM      9  C   UNL d   1      54.346  17.963  -9.136  0.00  0.00     0.210 A 
ATOM     10  N   UNL d   1      54.802  16.970  -8.345  0.00  0.00    -0.229 NA
ENDBRANCH   2   5
ENDBRANCH   1   2
BRANCH   1  11
ATOM     11  C   UNL d   1      54.629  17.701  -4.037  0.00  0.00     0.147 C 
BRANCH  11  12
ATOM     12  C   UNL d   1      53.147  17.392  -3.964  0.00  0.00    -0.038 A 
ATOM     13  C   UNL d   1      52.279  17.961  -3.005  0.00  0.00    -0.054 A 
ATOM     14  C   UNL d   1      52.776  18.929  -1.964  0.00  0.00     0.049 C 
ATOM     15  C   UNL d   1      50.914  17.619  -3.016  0.00  0.00     0.019 A 
ATOM     16  C   UNL d   1      50.375  16.711  -3.959  0.00  0.00    -0.025 A 
ATOM     17  C   UNL d   1      51.272  16.152  -4.897  0.00  0.00     0.013 A 
ATOM     18  C   UNL d   1      52.625  16.487  -4.896  0.00  0.00     0.010 A 
BRANCH  16  19
ATOM     19  C   UNL d   1      48.900  16.353  -3.967  0.00  0.00    -0.025 A 
ATOM     20  C   UNL d   1      48.465  15.015  -4.147  0.00  0.00     0.012 A 
ATOM     21  C   UNL d   1      47.106  14.689  -4.158  0.00  0.00     0.002 A 
ATOM     22  C   UNL d   1      46.143  15.679  -3.994  0.00  0.00     0.023 A 
ATOM     23  C   UNL d   1      46.534  17.007  -3.814  0.00  0.00     0.059 A 
ATOM     24  C   UNL d   1      47.895  17.340  -3.802  0.00  0.00     0.035 A 
BRANCH  23  25
ATOM     25  S   UNL d   1      45.290  18.287  -3.616  0.00  0.00     0.171 S 
ATOM     26  O   UNL d   1      45.635  19.416  -4.598  0.00  0.00    -0.223 OA
ATOM     27  C   UNL d   1      43.496  18.026  -3.688  0.00  0.00     0.167 C 
ATOM     28  O   UNL d   1      45.598  19.027  -2.306  0.00  0.00    -0.223 OA
ENDBRANCH  23  25
ENDBRANCH  16  19
ENDBRANCH  11  12
ENDBRANCH   1  11
BRANCH   1  29
ATOM     29  C   UNL d   1      56.188  15.938  -3.291  0.00  0.00     0.108 C 
BRANCH  29  30
ATOM     30  C   UNL d   1      55.727  14.555  -2.837  0.00  0.00    -0.026 A 
ATOM     31  C   UNL d   1      56.452  13.361  -3.012  0.00  0.00    -0.013 A 
ATOM     32  C   UNL d   1      57.775  13.147  -3.684  0.00  0.00     0.057 C 
ATOM     33  S   UNL d   1      55.580  12.089  -2.338  0.00  0.00    -0.100 SA
ATOM     34  C   UNL d   1      54.291  13.017  -1.806  0.00  0.00    -0.020 A 
ATOM     35  C   UNL d   1      53.093  12.504  -1.082  0.00  0.00     0.056 C 
ATOM     36  C   UNL d   1      54.517  14.341  -2.146  0.00  0.00     0.024 A 
ENDBRANCH  29  30
BRANCH  29  37
ATOM     37  C   UNL d   1      56.290  16.940  -2.114  0.00  0.00     0.026 C 
BRANCH  37  38
ATOM     38  C   UNL d   1      57.696  17.550  -1.911  0.00  0.00     0.002 C 
BRANCH  38  39
ATOM     39  C   UNL d   1      57.892  18.974  -2.465  0.00  0.00    -0.004 C 
ATOM     40  C   UNL d   1      59.321  19.247  -2.930  0.00  0.00     0.005 C 
ENDBRANCH  38  39
ENDBRANCH  37  38
ENDBRANCH  29  37
ENDBRANCH   1  29
TORSDOF 11
ENDMDL
MODEL 4
REMARK VINA RESULT:    -7.495      1.947      3.064
REMARK INTER + INTRA:         -13.297
REMARK INTER:                 -11.117
REMARK INTRA:                  -2.180
REMARK UNBOUND:                -0.982
REMARK  11 active torsions:
REMARK  status: ('A' for Active; 'I' for Inactive)
REMARK    1  A    between atoms: C_3  and  C_2 
REMARK    2  A    between atoms: C_4  and  C_3 
REMARK    3  A    between atoms: C_5  and  C_4 
REMARK    4  A    between atoms: C_5  and  C_7 
REMARK    5  A    between atoms: C_5  and  N_6 
REMARK    6  A    between atoms: S_8  and  N_6 
REMARK    7  A    between atoms: N_6  and  C_9 
REMARK    8  A    between atoms: S_8  and  C_12 
REMARK    9  A    between atoms: C_9  and  C_20 
REMARK   10  A    between atoms: C_30  and  C_31 
REMARK   11  A    between atoms: C_35  and  S_37 
ROOT
ATOM      1  N   UNL d   1      54.884  18.188  -4.412  0.00  0.00    -0.192 NA
ENDROOT
BRANCH   1   2
ATOM      2  S   UNL d   1      54.716  19.093  -2.867  0.00  0.00     0.263 S 
ATOM      3  O   UNL d   1      53.260  19.582  -2.863  0.00  0.00    -0.204 OA
ATOM      4  O   UNL d   1      55.446  20.430  -3.051  0.00  0.00    -0.204 OA
BRANCH   2   5
ATOM      5  C   UNL d   1      55.099  18.307  -1.301  0.00  0.00     0.183 A 
ATOM      6  C   UNL d   1      55.803  17.136  -1.143  0.00  0.00     0.136 A 
ATOM      7  N   UNL d   1      55.873  16.884   0.174  0.00  0.00    -0.353 N 
ATOM      8  C   UNL d   1      56.522  15.751   0.821  0.00  0.00     0.156 C 
ATOM      9  C   UNL d   1      55.221  17.890   0.787  0.00  0.00     0.210 A 
ATOM     10  N   UNL d   1      54.731  18.785  -0.095  0.00  0.00    -0.229 NA
ENDBRANCH   2   5
ENDBRANCH   1   2
BRANCH   1  11
ATOM     11  C   UNL d   1      54.523  16.763  -4.220  0.00  0.00     0.147 C 
BRANCH  11  12
ATOM     12  C   UNL d   1      53.021  16.576  -4.278  0.00  0.00    -0.038 A 
ATOM     13  C   UNL d   1      52.273  16.645  -5.475  0.00  0.00    -0.054 A 
ATOM     14  C   UNL d   1      52.927  16.923  -6.803  0.00  0.00     0.049 C 
ATOM     15  C   UNL d   1      50.878  16.453  -5.434  0.00  0.00     0.019 A 
ATOM     16  C   UNL d   1      50.192  16.195  -4.223  0.00  0.00    -0.025 A 
ATOM     17  C   UNL d   1      50.968  16.143  -3.044  0.00  0.00     0.013 A 
ATOM     18  C   UNL d   1      52.349  16.329  -3.075  0.00  0.00     0.010 A 
BRANCH  16  19
ATOM     19  C   UNL d   1      48.689  15.983  -4.189  0.00  0.00    -0.025 A 
ATOM     20  C   UNL d   1      48.119  14.699  -4.383  0.00  0.00     0.012 A 
ATOM     21  C   UNL d   1      46.736  14.508  -4.355  0.00  0.00     0.002 A 
ATOM     22  C   UNL d   1      45.880  15.583  -4.137  0.00  0.00     0.023 A 
ATOM     23  C   UNL d   1      46.405  16.861  -3.943  0.00  0.00     0.059 A 
ATOM     24  C   UNL d   1      47.792  17.059  -3.969  0.00  0.00     0.035 A 
BRANCH  23  25
ATOM     25  S   UNL d   1      45.300  18.251  -3.677  0.00  0.00     0.171 S 
ATOM     26  O   UNL d   1      45.739  19.374  -4.629  0.00  0.00    -0.223 OA
ATOM     27  C   UNL d   1      43.488  18.173  -3.720  0.00  0.00     0.167 C 
ATOM     28  O   UNL d   1      45.704  18.911  -2.350  0.00  0.00    -0.223 OA
ENDBRANCH  23  25
ENDBRANCH  16  19
ENDBRANCH  11  12
ENDBRANCH   1  11
BRANCH   1  29
ATOM     29  C   UNL d   1      56.160  18.350  -5.170  0.00  0.00     0.108 C 
BRANCH  29  30
ATOM     30  C   UNL d   1      56.149  19.513  -6.158  0.00  0.00    -0.026 A 
ATOM     31  C   UNL d   1      57.029  20.613  -6.127  0.00  0.00    -0.013 A 
ATOM     32  C   UNL d   1      58.119  20.924  -5.146  0.00  0.00     0.057 C 
ATOM     33  S   UNL d   1      56.674  21.633  -7.417  0.00  0.00    -0.100 SA
ATOM     34  C   UNL d   1      55.425  20.708  -8.040  0.00  0.00    -0.020 A 
ATOM     35  C   UNL d   1      54.620  21.039  -9.251  0.00  0.00     0.056 C 
ATOM     36  C   UNL d   1      55.260  19.581  -7.251  0.00  0.00     0.024 A 
ENDBRANCH  29  30
BRANCH  29  37
ATOM     37  C   UNL d   1      56.611  17.023  -5.827  0.00  0.00     0.026 C 
BRANCH  37  38
ATOM     38  C   UNL d   1      58.123  16.942  -6.138  0.00  0.00     0.002 C 
BRANCH  38  39
ATOM     39  C   UNL d   1      58.553  17.500  -7.508  0.00  0.00    -0.004 C 
ATOM     40  C   UNL d   1      57.617  17.092  -8.644  0.00  0.00     0.005 C 
ENDBRANCH  38  39
ENDBRANCH  37  38
ENDBRANCH  29  37
ENDBRANCH   1  29
TORSDOF 11
ENDMDL
MODEL 5
REMARK VINA RESULT:    -7.427      2.211      4.958
REMARK INTER + INTRA:         -13.185
REMARK INTER:                 -11.169
REMARK INTRA:                  -2.016
REMARK UNBOUND:                -0.982
REMARK  11 active torsions:
REMARK  status: ('A' for Active; 'I' for Inactive)
REMARK    1  A    between atoms: C_3  and  C_2 
REMARK    2  A    between atoms: C_4  and  C_3 
REMARK    3  A    between atoms: C_5  and  C_4 
REMARK    4  A    between atoms: C_5  and  C_7 
REMARK    5  A    between atoms: C_5  and  N_6 
REMARK    6  A    between atoms: S_8  and  N_6 
REMARK    7  A    between atoms: N_6  and  C_9 
REMARK    8  A    between atoms: S_8  and  C_12 
REMARK    9  A    between atoms: C_9  and  C_20 
REMARK   10  A    between atoms: C_30  and  C_31 
REMARK   11  A    between atoms: C_35  and  S_37 
ROOT
ATOM      1  N   UNL d   1      55.085  17.653  -2.815  0.00  0.00    -0.192 NA
ENDROOT
BRANCH   1   2
ATOM      2  S   UNL d   1      56.147  16.599  -1.817  0.00  0.00     0.263 S 
ATOM      3  O   UNL d   1      55.653  16.806  -0.377  0.00  0.00    -0.204 OA
ATOM      4  O   UNL d   1      57.513  17.291  -1.732  0.00  0.00    -0.204 OA
BRANCH   2   5
ATOM      5  C   UNL d   1      56.283  14.845  -2.168  0.00  0.00     0.183 A 
ATOM      6  C   UNL d   1      57.437  14.185  -2.520  0.00  0.00     0.136 A 
ATOM      7  N   UNL d   1      57.123  12.892  -2.699  0.00  0.00    -0.353 N 
ATOM      8  C   UNL d   1      58.022  11.810  -3.079  0.00  0.00     0.156 C 
ATOM      9  C   UNL d   1      55.802  12.787  -2.456  0.00  0.00     0.210 A 
ATOM     10  N   UNL d   1      55.254  13.974  -2.126  0.00  0.00    -0.229 NA
ENDBRANCH   2   5
ENDBRANCH   1   2
BRANCH   1  11
ATOM     11  C   UNL d   1      54.725  16.976  -4.082  0.00  0.00     0.147 C 
BRANCH  11  12
ATOM     12  C   UNL d   1      53.229  16.745  -4.163  0.00  0.00    -0.038 A 
ATOM     13  C   UNL d   1      52.523  16.635  -5.382  0.00  0.00    -0.054 A 
ATOM     14  C   UNL d   1      53.218  16.750  -6.713  0.00  0.00     0.049 C 
ATOM     15  C   UNL d   1      51.132  16.415  -5.359  0.00  0.00     0.019 A 
ATOM     16  C   UNL d   1      50.409  16.304  -4.148  0.00  0.00    -0.025 A 
ATOM     17  C   UNL d   1      51.144  16.429  -2.948  0.00  0.00     0.013 A 
ATOM     18  C   UNL d   1      52.521  16.643  -2.959  0.00  0.00     0.010 A 
BRANCH  16  19
ATOM     19  C   UNL d   1      48.911  16.060  -4.134  0.00  0.00    -0.025 A 
ATOM     20  C   UNL d   1      48.370  14.767  -4.349  0.00  0.00     0.012 A 
ATOM     21  C   UNL d   1      46.990  14.547  -4.340  0.00  0.00     0.002 A 
ATOM     22  C   UNL d   1      46.110  15.601  -4.120  0.00  0.00     0.023 A 
ATOM     23  C   UNL d   1      46.606  16.888  -3.904  0.00  0.00     0.059 A 
ATOM     24  C   UNL d   1      47.989  17.115  -3.912  0.00  0.00     0.035 A 
BRANCH  23  25
ATOM     25  S   UNL d   1      45.469  18.251  -3.635  0.00  0.00     0.171 S 
ATOM     26  O   UNL d   1      45.911  19.403  -4.550  0.00  0.00    -0.223 OA
ATOM     27  C   UNL d   1      43.661  18.142  -3.723  0.00  0.00     0.167 C 
ATOM     28  O   UNL d   1      45.829  18.888  -2.283  0.00  0.00    -0.223 OA
ENDBRANCH  23  25
ENDBRANCH  16  19
ENDBRANCH  11  12
ENDBRANCH   1  11
BRANCH   1  29
ATOM     29  C   UNL d   1      55.526  19.063  -3.033  0.00  0.00     0.108 C 
BRANCH  29  30
ATOM     30  C   UNL d   1      54.642  20.101  -2.347  0.00  0.00    -0.026 A 
ATOM     31  C   UNL d   1      54.442  21.420  -2.798  0.00  0.00    -0.013 A 
ATOM     32  C   UNL d   1      55.041  22.116  -3.983  0.00  0.00     0.057 C 
ATOM     33  S   UNL d   1      53.375  22.198  -1.754  0.00  0.00    -0.100 SA
ATOM     34  C   UNL d   1      53.138  20.892  -0.734  0.00  0.00    -0.020 A 
ATOM     35  C   UNL d   1      52.259  20.880   0.471  0.00  0.00     0.056 C 
ATOM     36  C   UNL d   1      53.890  19.820  -1.188  0.00  0.00     0.024 A 
ENDBRANCH  29  30
BRANCH  29  37
ATOM     37  C   UNL d   1      55.740  19.372  -4.536  0.00  0.00     0.026 C 
BRANCH  37  38
ATOM     38  C   UNL d   1      57.221  19.438  -4.973  0.00  0.00     0.002 C 
BRANCH  38  39
ATOM     39  C   UNL d   1      58.152  20.253  -4.055  0.00  0.00    -0.004 C 
ATOM     40  C   UNL d   1      59.412  19.491  -3.648  0.00  0.00     0.005 C 
ENDBRANCH  38  39
ENDBRANCH  37  38
ENDBRANCH  29  37
ENDBRANCH   1  29
TORSDOF 11
ENDMDL
MODEL 6
REMARK VINA RESULT:    -7.206      1.923      3.789
REMARK INTER + INTRA:         -12.823
REMARK INTER:                 -11.540
REMARK INTRA:                  -1.282
REMARK UNBOUND:                -0.982
REMARK  11 active torsions:
REMARK  status: ('A' for Active; 'I' for Inactive)
REMARK    1  A    between atoms: C_3  and  C_2 
REMARK    2  A    between atoms: C_4  and  C_3 
REMARK    3  A    between atoms: C_5  and  C_4 
REMARK    4  A    between atoms: C_5  and  C_7 
REMARK    5  A    between atoms: C_5  and  N_6 
REMARK    6  A    between atoms: S_8  and  N_6 
REMARK    7  A    between atoms: N_6  and  C_9 
REMARK    8  A    between atoms: S_8  and  C_12 
REMARK    9  A    between atoms: C_9  and  C_20 
REMARK   10  A    between atoms: C_30  and  C_31 
REMARK   11  A    between atoms: C_35  and  S_37 
ROOT
ATOM      1  N   UNL d   1      54.523  18.120  -4.322  0.00  0.00    -0.192 NA
ENDROOT
BRANCH   1   2
ATOM      2  S   UNL d   1      54.473  18.995  -2.751  0.00  0.00     0.263 S 
ATOM      3  O   UNL d   1      53.016  19.464  -2.616  0.00  0.00    -0.204 OA
ATOM      4  O   UNL d   1      55.169  20.345  -2.969  0.00  0.00    -0.204 OA
BRANCH   2   5
ATOM      5  C   UNL d   1      54.995  18.186  -1.237  0.00  0.00     0.183 A 
ATOM      6  C   UNL d   1      55.503  16.911  -1.144  0.00  0.00     0.136 A 
ATOM      7  N   UNL d   1      55.769  16.678   0.151  0.00  0.00    -0.353 N 
ATOM      8  C   UNL d   1      56.320  15.461   0.734  0.00  0.00     0.156 C 
ATOM      9  C   UNL d   1      55.423  17.798   0.816  0.00  0.00     0.210 A 
ATOM     10  N   UNL d   1      54.942  18.747  -0.012  0.00  0.00    -0.229 NA
ENDBRANCH   2   5
ENDBRANCH   1   2
BRANCH   1  11
ATOM     11  C   UNL d   1      54.137  16.701  -4.138  0.00  0.00     0.147 C 
BRANCH  11  12
ATOM     12  C   UNL d   1      52.634  16.535  -4.235  0.00  0.00    -0.038 A 
ATOM     13  C   UNL d   1      51.914  16.650  -5.446  0.00  0.00    -0.054 A 
ATOM     14  C   UNL d   1      52.603  16.959  -6.749  0.00  0.00     0.049 C 
ATOM     15  C   UNL d   1      50.517  16.475  -5.442  0.00  0.00     0.019 A 
ATOM     16  C   UNL d   1      49.800  16.189  -4.255  0.00  0.00    -0.025 A 
ATOM     17  C   UNL d   1      50.549  16.092  -3.061  0.00  0.00     0.013 A 
ATOM     18  C   UNL d   1      51.932  16.260  -3.055  0.00  0.00     0.010 A 
BRANCH  16  19
ATOM     19  C   UNL d   1      48.295  15.995  -4.262  0.00  0.00    -0.025 A 
ATOM     20  C   UNL d   1      47.713  14.732  -4.539  0.00  0.00     0.012 A 
ATOM     21  C   UNL d   1      46.327  14.558  -4.547  0.00  0.00     0.002 A 
ATOM     22  C   UNL d   1      45.481  15.630  -4.285  0.00  0.00     0.023 A 
ATOM     23  C   UNL d   1      46.017  16.888  -4.009  0.00  0.00     0.059 A 
ATOM     24  C   UNL d   1      47.407  17.069  -3.998  0.00  0.00     0.035 A 
BRANCH  23  25
ATOM     25  S   UNL d   1      44.924  18.276  -3.685  0.00  0.00     0.171 S 
ATOM     26  O   UNL d   1      45.319  19.405  -4.648  0.00  0.00    -0.223 OA
ATOM     27  C   UNL d   1      43.112  18.196  -3.646  0.00  0.00     0.167 C 
ATOM     28  O   UNL d   1      45.387  18.928  -2.373  0.00  0.00    -0.223 OA
ENDBRANCH  23  25
ENDBRANCH  16  19
ENDBRANCH  11  12
ENDBRANCH   1  11
BRANCH   1  29
ATOM     29  C   UNL d   1      55.754  18.267  -5.153  0.00  0.00     0.108 C 
BRANCH  29  30
ATOM     30  C   UNL d   1      57.020  17.742  -4.481  0.00  0.00    -0.026 A 
ATOM     31  C   UNL d   1      57.578  16.466  -4.690  0.00  0.00    -0.013 A 
ATOM     32  C   UNL d   1      57.079  15.344  -5.549  0.00  0.00     0.057 C 
ATOM     33  S   UNL d   1      58.981  16.326  -3.769  0.00  0.00    -0.100 SA
ATOM     34  C   UNL d   1      58.916  17.864  -3.110  0.00  0.00    -0.020 A 
ATOM     35  C   UNL d   1      59.906  18.441  -2.154  0.00  0.00     0.056 C 
ATOM     36  C   UNL d   1      57.795  18.518  -3.596  0.00  0.00     0.024 A 
ENDBRANCH  29  30
BRANCH  29  37
ATOM     37  C   UNL d   1      55.923  19.714  -5.678  0.00  0.00     0.026 C 
BRANCH  37  38
ATOM     38  C   UNL d   1      56.884  19.851  -6.881  0.00  0.00     0.002 C 
BRANCH  38  39
ATOM     39  C   UNL d   1      56.400  19.216  -8.198  0.00  0.00    -0.004 C 
ATOM     40  C   UNL d   1      54.924  19.483  -8.487  0.00  0.00     0.005 C 
ENDBRANCH  38  39
ENDBRANCH  37  38
ENDBRANCH  29  37
ENDBRANCH   1  29
TORSDOF 11
ENDMDL
MODEL 7
REMARK VINA RESULT:    -7.134      2.218      4.637
REMARK INTER + INTRA:         -12.704
REMARK INTER:                  -9.988
REMARK INTRA:                  -2.716
REMARK UNBOUND:                -0.982
REMARK  11 active torsions:
REMARK  status: ('A' for Active; 'I' for Inactive)
REMARK    1  A    between atoms: C_3  and  C_2 
REMARK    2  A    between atoms: C_4  and  C_3 
REMARK    3  A    between atoms: C_5  and  C_4 
REMARK    4  A    between atoms: C_5  and  C_7 
REMARK    5  A    between atoms: C_5  and  N_6 
REMARK    6  A    between atoms: S_8  and  N_6 
REMARK    7  A    between atoms: N_6  and  C_9 
REMARK    8  A    between atoms: S_8  and  C_12 
REMARK    9  A    between atoms: C_9  and  C_20 
REMARK   10  A    between atoms: C_30  and  C_31 
REMARK   11  A    between atoms: C_35  and  S_37 
ROOT
ATOM      1  N   UNL d   1      55.128  17.200  -3.915  0.00  0.00    -0.192 NA
ENDROOT
BRANCH   1   2
ATOM      2  S   UNL d   1      55.611  18.084  -5.405  0.00  0.00     0.263 S 
ATOM      3  O   UNL d   1      55.305  19.558  -5.095  0.00  0.00    -0.204 OA
ATOM      4  O   UNL d   1      54.533  17.804  -6.460  0.00  0.00    -0.204 OA
BRANCH   2   5
ATOM      5  C   UNL d   1      57.274  17.932  -6.060  0.00  0.00     0.183 A 
ATOM      6  C   UNL d   1      58.295  18.834  -5.872  0.00  0.00     0.136 A 
ATOM      7  N   UNL d   1      59.372  18.363  -6.520  0.00  0.00    -0.353 N 
ATOM      8  C   UNL d   1      60.690  18.979  -6.605  0.00  0.00     0.156 C 
ATOM      9  C   UNL d   1      58.995  17.199  -7.084  0.00  0.00     0.210 A 
ATOM     10  N   UNL d   1      57.706  16.904  -6.819  0.00  0.00    -0.229 NA
ENDBRANCH   2   5
ENDBRANCH   1   2
BRANCH   1  11
ATOM     11  C   UNL d   1      54.283  18.060  -3.053  0.00  0.00     0.147 C 
BRANCH  11  12
ATOM     12  C   UNL d   1      52.818  17.701  -3.205  0.00  0.00    -0.038 A 
ATOM     13  C   UNL d   1      51.771  18.429  -2.597  0.00  0.00    -0.054 A 
ATOM     14  C   UNL d   1      52.041  19.633  -1.733  0.00  0.00     0.049 C 
ATOM     15  C   UNL d   1      50.437  18.025  -2.798  0.00  0.00     0.019 A 
ATOM     16  C   UNL d   1      50.106  16.900  -3.590  0.00  0.00    -0.025 A 
ATOM     17  C   UNL d   1      51.177  16.188  -4.174  0.00  0.00     0.013 A 
ATOM     18  C   UNL d   1      52.501  16.582  -3.984  0.00  0.00     0.010 A 
BRANCH  16  19
ATOM     19  C   UNL d   1      48.665  16.475  -3.807  0.00  0.00    -0.025 A 
ATOM     20  C   UNL d   1      48.333  15.149  -4.186  0.00  0.00     0.012 A 
ATOM     21  C   UNL d   1      47.006  14.763  -4.388  0.00  0.00     0.002 A 
ATOM     22  C   UNL d   1      45.973  15.678  -4.222  0.00  0.00     0.023 A 
ATOM     23  C   UNL d   1      46.260  16.992  -3.849  0.00  0.00     0.059 A 
ATOM     24  C   UNL d   1      47.590  17.386  -3.644  0.00  0.00     0.035 A 
BRANCH  23  25
ATOM     25  S   UNL d   1      44.927  18.178  -3.649  0.00  0.00     0.171 S 
ATOM     26  O   UNL d   1      45.166  19.311  -4.658  0.00  0.00    -0.223 OA
ATOM     27  C   UNL d   1      43.157  17.781  -3.678  0.00  0.00     0.167 C 
ATOM     28  O   UNL d   1      45.204  18.966  -2.359  0.00  0.00    -0.223 OA
ENDBRANCH  23  25
ENDBRANCH  16  19
ENDBRANCH  11  12
ENDBRANCH   1  11
BRANCH   1  29
ATOM     29  C   UNL d   1      56.204  16.512  -3.144  0.00  0.00     0.108 C 
BRANCH  29  30
ATOM     30  C   UNL d   1      55.954  15.022  -2.927  0.00  0.00    -0.026 A 
ATOM     31  C   UNL d   1      56.713  13.981  -3.498  0.00  0.00    -0.013 A 
ATOM     32  C   UNL d   1      57.874  14.065  -4.442  0.00  0.00     0.057 C 
ATOM     33  S   UNL d   1      56.102  12.506  -2.966  0.00  0.00    -0.100 SA
ATOM     34  C   UNL d   1      54.891  13.148  -2.005  0.00  0.00    -0.020 A 
ATOM     35  C   UNL d   1      53.916  12.362  -1.194  0.00  0.00     0.056 C 
ATOM     36  C   UNL d   1      54.939  14.531  -2.080  0.00  0.00     0.024 A 
ENDBRANCH  29  30
BRANCH  29  37
ATOM     37  C   UNL d   1      56.529  17.253  -1.823  0.00  0.00     0.026 C 
BRANCH  37  38
ATOM     38  C   UNL d   1      57.952  16.997  -1.277  0.00  0.00     0.002 C 
BRANCH  38  39
ATOM     39  C   UNL d   1      58.029  16.489   0.175  0.00  0.00    -0.004 C 
ATOM     40  C   UNL d   1      57.809  14.982   0.297  0.00  0.00     0.005 C 
ENDBRANCH  38  39
ENDBRANCH  37  38
ENDBRANCH  29  37
ENDBRANCH   1  29
TORSDOF 11
ENDMDL
MODEL 8
REMARK VINA RESULT:    -6.966      2.285      4.178
REMARK INTER + INTRA:         -12.429
REMARK INTER:                 -10.743
REMARK INTRA:                  -1.685
REMARK UNBOUND:                -0.982
REMARK  11 active torsions:
REMARK  status: ('A' for Active; 'I' for Inactive)
REMARK    1  A    between atoms: C_3  and  C_2 
REMARK    2  A    between atoms: C_4  and  C_3 
REMARK    3  A    between atoms: C_5  and  C_4 
REMARK    4  A    between atoms: C_5  and  C_7 
REMARK    5  A    between atoms: C_5  and  N_6 
REMARK    6  A    between atoms: S_8  and  N_6 
REMARK    7  A    between atoms: N_6  and  C_9 
REMARK    8  A    between atoms: S_8  and  C_12 
REMARK    9  A    between atoms: C_9  and  C_20 
REMARK   10  A    between atoms: C_30  and  C_31 
REMARK   11  A    between atoms: C_35  and  S_37 
ROOT
ATOM      1  N   UNL d   1      54.098  17.893  -3.788  0.00  0.00    -0.192 NA
ENDROOT
BRANCH   1   2
ATOM      2  S   UNL d   1      54.748  19.520  -3.384  0.00  0.00     0.263 S 
ATOM      3  O   UNL d   1      55.532  19.310  -2.079  0.00  0.00    -0.204 OA
ATOM      4  O   UNL d   1      53.572  20.352  -2.856  0.00  0.00    -0.204 OA
BRANCH   2   5
ATOM      5  C   UNL d   1      55.757  20.421  -4.562  0.00  0.00     0.183 A 
ATOM      6  C   UNL d   1      56.991  20.971  -4.305  0.00  0.00     0.136 A 
ATOM      7  N   UNL d   1      57.413  21.558  -5.437  0.00  0.00    -0.353 N 
ATOM      8  C   UNL d   1      58.667  22.270  -5.646  0.00  0.00     0.156 C 
ATOM      9  C   UNL d   1      56.443  21.360  -6.350  0.00  0.00     0.210 A 
ATOM     10  N   UNL d   1      55.407  20.662  -5.842  0.00  0.00    -0.229 NA
ENDBRANCH   2   5
ENDBRANCH   1   2
BRANCH   1  11
ATOM     11  C   UNL d   1      53.424  17.297  -2.611  0.00  0.00     0.147 C 
BRANCH  11  12
ATOM     12  C   UNL d   1      52.013  16.867  -2.959  0.00  0.00    -0.038 A 
ATOM     13  C   UNL d   1      51.552  15.537  -2.838  0.00  0.00    -0.054 A 
ATOM     14  C   UNL d   1      52.448  14.429  -2.350  0.00  0.00     0.049 C 
ATOM     15  C   UNL d   1      50.221  15.230  -3.181  0.00  0.00     0.019 A 
ATOM     16  C   UNL d   1      49.321  16.216  -3.653  0.00  0.00    -0.025 A 
ATOM     17  C   UNL d   1      49.818  17.533  -3.773  0.00  0.00     0.013 A 
ATOM     18  C   UNL d   1      51.132  17.847  -3.433  0.00  0.00     0.010 A 
BRANCH  16  19
ATOM     19  C   UNL d   1      47.887  15.877  -4.014  0.00  0.00    -0.025 A 
ATOM     20  C   UNL d   1      47.572  14.753  -4.819  0.00  0.00     0.012 A 
ATOM     21  C   UNL d   1      46.251  14.446  -5.153  0.00  0.00     0.002 A 
ATOM     22  C   UNL d   1      45.206  15.245  -4.701  0.00  0.00     0.023 A 
ATOM     23  C   UNL d   1      45.477  16.360  -3.906  0.00  0.00     0.059 A 
ATOM     24  C   UNL d   1      46.801  16.673  -3.567  0.00  0.00     0.035 A 
BRANCH  23  25
ATOM     25  S   UNL d   1      44.129  17.400  -3.335  0.00  0.00     0.171 S 
ATOM     26  O   UNL d   1      44.749  18.542  -2.514  0.00  0.00    -0.223 OA
ATOM     27  C   UNL d   1      42.840  18.119  -4.389  0.00  0.00     0.167 C 
ATOM     28  O   UNL d   1      43.429  16.654  -2.189  0.00  0.00    -0.223 OA
ENDBRANCH  23  25
ENDBRANCH  16  19
ENDBRANCH  11  12
ENDBRANCH   1  11
BRANCH   1  29
ATOM     29  C   UNL d   1      55.022  16.930  -4.456  0.00  0.00     0.108 C 
BRANCH  29  30
ATOM     30  C   UNL d   1      56.403  16.847  -3.811  0.00  0.00    -0.026 A 
ATOM     31  C   UNL d   1      56.711  16.115  -2.648  0.00  0.00    -0.013 A 
ATOM     32  C   UNL d   1      55.804  15.303  -1.773  0.00  0.00     0.057 C 
ATOM     33  S   UNL d   1      58.352  16.286  -2.314  0.00  0.00    -0.100 SA
ATOM     34  C   UNL d   1      58.701  17.265  -3.627  0.00  0.00    -0.020 A 
ATOM     35  C   UNL d   1      60.045  17.818  -3.964  0.00  0.00     0.056 C 
ATOM     36  C   UNL d   1      57.541  17.479  -4.353  0.00  0.00     0.024 A 
ENDBRANCH  29  30
BRANCH  29  37
ATOM     37  C   UNL d   1      55.100  17.175  -5.983  0.00  0.00     0.026 C 
BRANCH  37  38
ATOM     38  C   UNL d   1      53.832  16.763  -6.765  0.00  0.00     0.002 C 
BRANCH  38  39
ATOM     39  C   UNL d   1      53.662  17.412  -8.152  0.00  0.00    -0.004 C 
ATOM     40  C   UNL d   1      54.992  17.763  -8.818  0.00  0.00     0.005 C 
ENDBRANCH  38  39
ENDBRANCH  37  38
ENDBRANCH  29  37
ENDBRANCH   1  29
TORSDOF 11
ENDMDL
MODEL 9
REMARK VINA RESULT:    -6.811      2.089      3.477
REMARK INTER + INTRA:         -12.174
REMARK INTER:                 -11.192
REMARK INTRA:                  -0.982
REMARK UNBOUND:                -0.982
REMARK  11 active torsions:
REMARK  status: ('A' for Active; 'I' for Inactive)
REMARK    1  A    between atoms: C_3  and  C_2 
REMARK    2  A    between atoms: C_4  and  C_3 
REMARK    3  A    between atoms: C_5  and  C_4 
REMARK    4  A    between atoms: C_5  and  C_7 
REMARK    5  A    between atoms: C_5  and  N_6 
REMARK    6  A    between atoms: S_8  and  N_6 
REMARK    7  A    between atoms: N_6  and  C_9 
REMARK    8  A    between atoms: S_8  and  C_12 
REMARK    9  A    between atoms: C_9  and  C_20 
REMARK   10  A    between atoms: C_30  and  C_31 
REMARK   11  A    between atoms: C_35  and  S_37 
ROOT
ATOM      1  N   UNL d   1      54.725  19.010  -4.255  0.00  0.00    -0.192 NA
ENDROOT
BRANCH   1   2
ATOM      2  S   UNL d   1      54.759  20.439  -3.164  0.00  0.00     0.263 S 
ATOM      3  O   UNL d   1      54.174  21.583  -4.007  0.00  0.00    -0.204 OA
ATOM      4  O   UNL d   1      56.221  20.896  -3.072  0.00  0.00    -0.204 OA
BRANCH   2   5
ATOM      5  C   UNL d   1      53.950  20.387  -1.563  0.00  0.00     0.183 A 
ATOM      6  C   UNL d   1      52.746  20.976  -1.255  0.00  0.00     0.136 A 
ATOM      7  N   UNL d   1      52.488  20.711   0.036  0.00  0.00    -0.353 N 
ATOM      8  C   UNL d   1      51.324  21.129   0.807  0.00  0.00     0.156 C 
ATOM      9  C   UNL d   1      53.524  19.977   0.486  0.00  0.00     0.210 A 
ATOM     10  N   UNL d   1      54.443  19.760  -0.476  0.00  0.00    -0.229 NA
ENDBRANCH   2   5
ENDBRANCH   1   2
BRANCH   1  11
ATOM     11  C   UNL d   1      54.389  17.784  -3.494  0.00  0.00     0.147 C 
BRANCH  11  12
ATOM     12  C   UNL d   1      52.942  17.393  -3.715  0.00  0.00    -0.038 A 
ATOM     13  C   UNL d   1      52.492  16.684  -4.852  0.00  0.00    -0.054 A 
ATOM     14  C   UNL d   1      53.435  16.265  -5.949  0.00  0.00     0.049 C 
ATOM     15  C   UNL d   1      51.127  16.359  -4.971  0.00  0.00     0.019 A 
ATOM     16  C   UNL d   1      50.179  16.725  -3.985  0.00  0.00    -0.025 A 
ATOM     17  C   UNL d   1      50.661  17.442  -2.867  0.00  0.00     0.013 A 
ATOM     18  C   UNL d   1      52.011  17.766  -2.738  0.00  0.00     0.010 A 
BRANCH  16  19
ATOM     19  C   UNL d   1      48.711  16.364  -4.118  0.00  0.00    -0.025 A 
ATOM     20  C   UNL d   1      48.302  15.076  -4.548  0.00  0.00     0.012 A 
ATOM     21  C   UNL d   1      46.950  14.748  -4.673  0.00  0.00     0.002 A 
ATOM     22  C   UNL d   1      45.967  15.688  -4.379  0.00  0.00     0.023 A 
ATOM     23  C   UNL d   1      46.332  16.966  -3.954  0.00  0.00     0.059 A 
ATOM     24  C   UNL d   1      47.687  17.301  -3.826  0.00  0.00     0.035 A 
BRANCH  23  25
ATOM     25  S   UNL d   1      45.063  18.184  -3.589  0.00  0.00     0.171 S 
ATOM     26  O   UNL d   1      45.203  19.313  -4.621  0.00  0.00    -0.223 OA
ATOM     27  C   UNL d   1      43.294  17.830  -3.398  0.00  0.00     0.167 C 
ATOM     28  O   UNL d   1      45.518  18.960  -2.344  0.00  0.00    -0.223 OA
ENDBRANCH  23  25
ENDBRANCH  16  19
ENDBRANCH  11  12
ENDBRANCH   1  11
BRANCH   1  29
ATOM     29  C   UNL d   1      55.893  18.810  -5.162  0.00  0.00     0.108 C 
BRANCH  29  30
ATOM     30  C   UNL d   1      57.064  18.077  -4.511  0.00  0.00    -0.026 A 
ATOM     31  C   UNL d   1      57.552  16.816  -4.908  0.00  0.00    -0.013 A 
ATOM     32  C   UNL d   1      57.052  15.905  -5.988  0.00  0.00     0.057 C 
ATOM     33  S   UNL d   1      58.862  16.408  -3.934  0.00  0.00    -0.100 SA
ATOM     34  C   UNL d   1      58.846  17.807  -3.014  0.00  0.00    -0.020 A 
ATOM     35  C   UNL d   1      59.789  18.127  -1.904  0.00  0.00     0.056 C 
ATOM     36  C   UNL d   1      57.813  18.622  -3.449  0.00  0.00     0.024 A 
ENDBRANCH  29  30
BRANCH  29  37
ATOM     37  C   UNL d   1      56.330  20.133  -5.838  0.00  0.00     0.026 C 
BRANCH  37  38
ATOM     38  C   UNL d   1      57.589  20.014  -6.727  0.00  0.00     0.002 C 
BRANCH  38  39
ATOM     39  C   UNL d   1      58.631  21.137  -6.564  0.00  0.00    -0.004 C 
ATOM     40  C   UNL d   1      58.528  21.861  -5.223  0.00  0.00     0.005 C 
ENDBRANCH  38  39
ENDBRANCH  37  38
ENDBRANCH  29  37
ENDBRANCH   1  29
TORSDOF 11
ENDMDL
