REMARK  11 active torsions:
REMARK  status: ('A' for Active; 'I' for Inactive)
REMARK    1  A    between atoms: C_3  and  C_2 
REMARK    2  A    between atoms: C_4  and  C_3 
REMARK    3  A    between atoms: C_5  and  C_4 
REMARK    4  A    between atoms: C_5  and  C_7 
REMARK    5  A    between atoms: C_5  and  N_6 
REMARK    6  A    between atoms: S_8  and  N_6 
REMARK    7  A    between atoms: N_6  and  C_9 
REMARK    8  A    between atoms: S_8  and  C_12 
REMARK    9  A    between atoms: C_9  and  C_20 
REMARK   10  A    between atoms: C_30  and  C_31 
REMARK   11  A    between atoms: C_35  and  S_37 
ROOT
ATOM      1  N   UNL d   1       4.898   0.773  -1.224  0.00  0.00    -0.192 NA
ENDROOT
BRANCH   1   2
ATOM      2  S   UNL d   1       3.223   1.169  -0.703  0.00  0.00     0.263 S 
ATOM      3  O   UNL d   1       2.846   0.043   0.272  0.00  0.00    -0.204 OA
ATOM      4  O   UNL d   1       2.297   0.826  -1.877  0.00  0.00    -0.204 OA
BRANCH   2   5
ATOM      5  C   UNL d   1       2.846   2.762   0.031  0.00  0.00     0.183 A 
ATOM      6  C   UNL d   1       1.585   3.246   0.291  0.00  0.00     0.136 A 
ATOM      7  N   UNL d   1       1.727   4.465   0.836  0.00  0.00    -0.353 N 
ATOM      8  C   UNL d   1       0.667   5.363   1.276  0.00  0.00     0.156 C 
ATOM      9  C   UNL d   1       3.052   4.700   0.897  0.00  0.00     0.210 A 
ATOM     10  N   UNL d   1       3.770   3.669   0.408  0.00  0.00    -0.229 NA
ENDBRANCH   2   5
ENDBRANCH   1   2
BRANCH   1  11
ATOM     11  C   UNL d   1       5.843   0.927  -0.093  0.00  0.00     0.147 C 
BRANCH  11  12
ATOM     12  C   UNL d   1       5.653  -0.182   0.922  0.00  0.00    -0.038 A 
ATOM     13  C   UNL d   1       5.347   0.051   2.282  0.00  0.00    -0.054 A 
ATOM     14  C   UNL d   1       5.192   1.445   2.831  0.00  0.00     0.049 C 
ATOM     15  C   UNL d   1       5.183  -1.043   3.153  0.00  0.00     0.019 A 
ATOM     16  C   UNL d   1       5.320  -2.381   2.712  0.00  0.00    -0.025 A 
ATOM     17  C   UNL d   1       5.637  -2.578   1.349  0.00  0.00     0.013 A 
ATOM     18  C   UNL d   1       5.798  -1.502   0.478  0.00  0.00     0.010 A 
BRANCH  16  19
ATOM     19  C   UNL d   1       5.135  -3.554   3.657  0.00  0.00    -0.025 A 
ATOM     20  C   UNL d   1       5.458  -4.878   3.265  0.00  0.00     0.012 A 
ATOM     21  C   UNL d   1       5.283  -5.956   4.136  0.00  0.00     0.002 A 
ATOM     22  C   UNL d   1       4.781  -5.752   5.417  0.00  0.00     0.023 A 
ATOM     23  C   UNL d   1       4.452  -4.463   5.838  0.00  0.00     0.059 A 
ATOM     24  C   UNL d   1       4.626  -3.377   4.969  0.00  0.00     0.035 A 
BRANCH  23  25
ATOM     25  S   UNL d   1       3.790  -4.202   7.487  0.00  0.00     0.171 S 
ATOM     26  O   UNL d   1       4.386  -2.889   8.017  0.00  0.00    -0.223 OA
ATOM     27  C   UNL d   1       2.030  -4.223   7.926  0.00  0.00     0.167 C 
ATOM     28  O   UNL d   1       4.515  -5.174   8.431  0.00  0.00    -0.223 OA
ENDBRANCH  23  25
ENDBRANCH  16  19
ENDBRANCH  11  12
ENDBRANCH   1  11
BRANCH   1  29
ATOM     29  C   UNL d   1       5.401   1.419  -2.472  0.00  0.00     0.108 C 
BRANCH  29  30
ATOM     30  C   UNL d   1       5.297   2.942  -2.466  0.00  0.00    -0.026 A 
ATOM     31  C   UNL d   1       6.381   3.828  -2.311  0.00  0.00    -0.013 A 
ATOM     32  C   UNL d   1       7.831   3.519  -2.088  0.00  0.00     0.057 C 
ATOM     33  S   UNL d   1       5.810   5.409  -2.394  0.00  0.00    -0.100 SA
ATOM     34  C   UNL d   1       4.203   5.007  -2.639  0.00  0.00    -0.020 A 
ATOM     35  C   UNL d   1       3.082   5.976  -2.809  0.00  0.00     0.056 C 
ATOM     36  C   UNL d   1       4.080   3.627  -2.660  0.00  0.00     0.024 A 
ENDBRANCH  29  30
BRANCH  29  37
ATOM     37  C   UNL d   1       4.770   0.791  -3.739  0.00  0.00     0.026 C 
BRANCH  37  38
ATOM     38  C   UNL d   1       5.359   1.306  -5.072  0.00  0.00     0.002 C 
BRANCH  38  39
ATOM     39  C   UNL d   1       6.869   1.073  -5.269  0.00  0.00    -0.004 C 
ATOM     40  C   UNL d   1       7.258  -0.404  -5.242  0.00  0.00     0.005 C 
ENDBRANCH  38  39
ENDBRANCH  37  38
ENDBRANCH  29  37
ENDBRANCH   1  29
TORSDOF 11
