@<TRIPOS>MOLECULE
*****
 77 80 0 0 0
SMALL
GASTEIGER

@<TRIPOS>ATOM
      1 C           8.8964   -0.9094   -0.3535 C.3     1  UNL1       -0.0653
      2 C           8.3946   -1.5530   -1.6455 C.3     1  UNL1       -0.0559
      3 C           7.0943   -2.3565   -1.4559 C.3     1  UNL1       -0.0515
      4 C           5.8782   -1.5507   -0.9447 C.3     1  UNL1       -0.0316
      5 C           5.4439   -0.3881   -1.8707 C.3     1  UNL1        0.0579
      6 N           4.3826    0.4605   -1.2537 N.3     1  UNL1       -0.1634
      7 C           5.1043   -0.8678   -3.2789 C.ar    1  UNL1       -0.0184
      8 S           2.7537   -0.2673   -1.0232 S.O2    1  UNL1        0.0803
      9 C           4.2749    1.7802   -1.9165 C.3     1  UNL1        0.0465
     10 C           4.1838   -1.9041   -3.5311 C.ar    1  UNL1       -0.0468
     11 C           5.6833   -0.3761   -4.4646 C.ar    1  UNL1       -0.0083
     12 C           1.6621   -0.5729   -2.4116 C.ar    1  UNL1        0.2114
     13 O           2.0559    0.6574   -0.0147 O.2     1  UNL1       -0.1513
     14 O           2.9430   -1.5103   -0.1434 O.2     1  UNL1       -0.1513
     15 N           1.6274    0.1716   -3.5342 N.ar    1  UNL1       -0.2163
     16 C           0.7446   -1.5948   -2.5012 C.ar    1  UNL1        0.0507
     17 C           0.6810   -0.4111   -4.2980 C.ar    1  UNL1        0.0980
     18 N           0.1337   -1.4824   -3.6921 N.ar    1  UNL1       -0.3379
     19 C          -0.9110   -2.3439   -4.2302 C.3     1  UNL1        0.0128
     20 C           3.7175    2.8174   -0.9589 C.ar    1  UNL1       -0.0287
     21 C           4.0336   -2.2058   -4.8751 C.ar    1  UNL1       -0.0127
     22 C           6.7030    0.7093   -4.6418 C.3     1  UNL1       -0.0331
     23 S           5.0349   -1.2091   -5.7747 S.2     1  UNL1       -0.0984
     24 C           4.4394    3.0244    0.2241 C.ar    1  UNL1       -0.0565
     25 C           2.5401    3.5811   -1.1771 C.ar    1  UNL1       -0.0454
     26 C           3.1335   -3.2569   -5.4317 C.3     1  UNL1       -0.0334
     27 C           4.0244    3.9494    1.1782 C.ar    1  UNL1       -0.0537
     28 C           1.6684    3.4780   -2.4064 C.3     1  UNL1       -0.0394
     29 C           2.1311    4.5097   -0.2005 C.ar    1  UNL1       -0.0508
     30 C           2.8561    4.7200    0.9968 C.ar    1  UNL1       -0.0176
     31 C           2.4040    5.7287    2.0385 C.ar    1  UNL1       -0.0161
     32 C           3.2069    6.0378    3.1665 C.ar    1  UNL1       -0.0539
     33 C           1.1610    6.4053    1.9306 C.ar    1  UNL1       -0.0292
     34 C           2.7895    6.9660    4.1231 C.ar    1  UNL1       -0.0594
     35 C           0.7494    7.3363    2.8942 C.ar    1  UNL1        0.0884
     36 C           1.5660    7.6126    3.9897 C.ar    1  UNL1       -0.0369
     37 S          -0.8350    8.1667    2.7313 S.O2    1  UNL1       -0.0059
     38 O          -1.0663    8.4287    1.2350 O.2     1  UNL1       -0.1696
     39 O          -0.6348    9.6213    3.1839 O.2     1  UNL1       -0.1696
     40 C          -2.4021    7.5869    3.4367 C.3     1  UNL1        0.0596
     41 H           9.8593   -0.3926   -0.5496 H       1  UNL1        0.0230
     42 H           9.0606   -1.6847    0.4247 H       1  UNL1        0.0230
     43 H           8.1746   -0.1554    0.0221 H       1  UNL1        0.0230
     44 H           8.2632   -0.7725   -2.4223 H       1  UNL1        0.0263
     45 H           9.1777   -2.2522   -2.0105 H       1  UNL1        0.0263
     46 H           6.8341   -2.8303   -2.4269 H       1  UNL1        0.0266
     47 H           7.2924   -3.1761   -0.7310 H       1  UNL1        0.0266
     48 H           6.1048   -1.1445    0.0635 H       1  UNL1        0.0284
     49 H           5.0542   -2.2774   -0.8287 H       1  UNL1        0.0284
     50 H           6.3391    0.2540   -1.9139 H       1  UNL1        0.0529
     51 H           3.7291    1.6677   -2.8658 H       1  UNL1        0.0493
     52 H           5.2816    2.1585   -2.1984 H       1  UNL1        0.0493
     53 H           3.6460   -2.4344   -2.7581 H       1  UNL1        0.0629
     54 H           0.5409   -2.3576   -1.7607 H       1  UNL1        0.0845
     55 H           0.3992   -0.0577   -5.2814 H       1  UNL1        0.1029
     56 H          -1.1621   -3.1498   -3.5078 H       1  UNL1        0.0456
     57 H          -0.5624   -2.8070   -5.1771 H       1  UNL1        0.0456
     58 H          -1.8233   -1.7438   -4.4305 H       1  UNL1        0.0456
     59 H           7.0251    1.1754   -3.6948 H       1  UNL1        0.0283
     60 H           6.2746    1.5071   -5.2832 H       1  UNL1        0.0283
     61 H           7.5995    0.2882   -5.1422 H       1  UNL1        0.0283
     62 H           5.3429    2.4561    0.4140 H       1  UNL1        0.0621
     63 H           3.2132   -3.2867   -6.5385 H       1  UNL1        0.0283
     64 H           2.0837   -3.0358   -5.1520 H       1  UNL1        0.0283
     65 H           3.4204   -4.2475   -5.0218 H       1  UNL1        0.0283
     66 H           4.6430    4.0288    2.0546 H       1  UNL1        0.0624
     67 H           2.0104    2.7650   -3.1685 H       1  UNL1        0.0278
     68 H           1.6143    4.4715   -2.8998 H       1  UNL1        0.0278
     69 H           0.6435    3.1743   -2.1050 H       1  UNL1        0.0278
     70 H           1.2356    5.0666   -0.4160 H       1  UNL1        0.0626
     71 H           4.1681    5.5864    3.3385 H       1  UNL1        0.0624
     72 H           0.4812    6.2289    1.1164 H       1  UNL1        0.0643
     73 H           3.4219    7.1848    4.9742 H       1  UNL1        0.0618
     74 H           1.2543    8.3277    4.7403 H       1  UNL1        0.0636
     75 H          -2.6415    6.5816    3.0332 H       1  UNL1        0.0468
     76 H          -3.2140    8.2902    3.1587 H       1  UNL1        0.0468
     77 H          -2.3200    7.5488    4.5424 H       1  UNL1        0.0468
@<TRIPOS>BOND
     1    13     8    2
     2     8     6    1
     3     6     9    1
     4     9    20    1
     5    20    25   ar
     6    25    28    1
     7    25    29   ar
     8    29    30   ar
     9    30    31    1
    10    31    32   ar
    11    32    34   ar
    12    34    36   ar
    13    36    35   ar
    14    35    37    1
    15    37    38    2
    16    37    40    1
    17    37    39    2
    18    35    33   ar
    19    31    33   ar
    20    30    27   ar
    21    27    24   ar
    22    20    24   ar
    23     4     3    1
    24     3     2    1
    25     2     1    1
    26     5     7    1
    27     7    11   ar
    28    11    22    1
    29    11    23   ar
    30    23    21   ar
    31    21    26    1
    32    21    10   ar
    33     7    10   ar
    34     8    12    1
    35    12    16   ar
    36    16    18   ar
    37    18    19    1
    38    18    17   ar
    39    17    15   ar
    40    12    15   ar
    41     8    14    2
    42     5     4    1
    43     5     6    1
    44     1    41    1
    45     1    42    1
    46     1    43    1
    47     2    44    1
    48     2    45    1
    49     3    46    1
    50     3    47    1
    51     4    48    1
    52     4    49    1
    53     5    50    1
    54     9    51    1
    55     9    52    1
    56    10    53    1
    57    16    54    1
    58    17    55    1
    59    19    56    1
    60    19    57    1
    61    19    58    1
    62    22    59    1
    63    22    60    1
    64    22    61    1
    65    24    62    1
    66    26    63    1
    67    26    64    1
    68    26    65    1
    69    27    66    1
    70    28    67    1
    71    28    68    1
    72    28    69    1
    73    29    70    1
    74    32    71    1
    75    33    72    1
    76    34    73    1
    77    36    74    1
    78    40    75    1
    79    40    76    1
    80    40    77    1
