@<TRIPOS>MOLECULE
*****
 71 74 0 0 0
SMALL
GASTEIGER

@<TRIPOS>ATOM
      1 C           1.7510   -3.2564   -1.3418 C.3     1  UNL1       -0.0635
      2 C           1.7924   -1.7428   -1.0972 C.3     1  UNL1       -0.0344
      3 C           2.9820   -1.3175   -0.1829 C.3     1  UNL1        0.0577
      4 N           2.8838    0.0949    0.3012 N.3     1  UNL1       -0.1634
      5 C           4.3562   -1.5520   -0.8192 C.ar    1  UNL1       -0.0184
      6 S           2.9829    1.3191   -1.0039 S.O2    1  UNL1        0.0803
      7 C           1.7071    0.3878    1.1551 C.3     1  UNL1        0.0465
      8 C           4.5732   -1.8318   -2.1890 C.ar    1  UNL1       -0.0468
      9 C           5.5665   -1.4886   -0.1079 C.ar    1  UNL1       -0.0083
     10 C           1.6941    1.4200   -2.2389 C.ar    1  UNL1        0.2114
     11 O           4.3844    1.1891   -1.6190 O.2     1  UNL1       -0.1513
     12 O           3.1325    2.6619   -0.2719 O.2     1  UNL1       -0.1513
     13 N           0.4160    1.7539   -1.9723 N.ar    1  UNL1       -0.2163
     14 C           1.8428    1.1674   -3.5835 C.ar    1  UNL1        0.0507
     15 C          -0.2024    1.6992   -3.1702 C.ar    1  UNL1        0.0980
     16 N           0.6424    1.3460   -4.1587 N.ar    1  UNL1       -0.3379
     17 C           0.3109    1.1896   -5.5690 C.3     1  UNL1        0.0128
     18 C           1.7382   -0.3994    2.4536 C.ar    1  UNL1       -0.0287
     19 C           5.9098   -1.9827   -2.5252 C.ar    1  UNL1       -0.0127
     20 C           5.7625   -1.2294    1.3493 C.3     1  UNL1       -0.0331
     21 S           6.8506   -1.7749   -1.1551 S.2     1  UNL1       -0.0984
     22 C           2.8226   -0.1602    3.3056 C.ar    1  UNL1       -0.0565
     23 C           0.7512   -1.3359    2.8612 C.ar    1  UNL1       -0.0454
     24 C           6.4290   -2.2757   -3.8927 C.3     1  UNL1       -0.0334
     25 C           2.9593   -0.8292    4.5191 C.ar    1  UNL1       -0.0537
     26 C          -0.4856   -1.6824    2.0648 C.3     1  UNL1       -0.0394
     27 C           0.9043   -2.0067    4.0899 C.ar    1  UNL1       -0.0508
     28 C           2.0062   -1.7776    4.9484 C.ar    1  UNL1       -0.0176
     29 C           2.1570   -2.5122    6.2709 C.ar    1  UNL1       -0.0161
     30 C           3.2486   -2.2568    7.1409 C.ar    1  UNL1       -0.0539
     31 C           1.2160   -3.4875    6.6942 C.ar    1  UNL1       -0.0292
     32 C           3.3862   -2.9358    8.3538 C.ar    1  UNL1       -0.0594
     33 C           1.3595   -4.1629    7.9134 C.ar    1  UNL1        0.0884
     34 C           2.4474   -3.8859    8.7398 C.ar    1  UNL1       -0.0369
     35 S           0.1475   -5.3943    8.4049 S.O2    1  UNL1       -0.0059
     36 O          -1.2393   -4.8262    8.0662 O.2     1  UNL1       -0.1696
     37 O           0.0386   -5.3495    9.9370 O.2     1  UNL1       -0.1696
     38 C           0.1593   -7.1382    7.9064 C.3     1  UNL1        0.0596
     39 H           0.8724   -3.5035   -1.9743 H       1  UNL1        0.0230
     40 H           1.6487   -3.7946   -0.3753 H       1  UNL1        0.0230
     41 H           2.6587   -3.6279   -1.8544 H       1  UNL1        0.0230
     42 H           0.8296   -1.5075   -0.6154 H       1  UNL1        0.0281
     43 H           1.8177   -1.2094   -2.0648 H       1  UNL1        0.0281
     44 H           2.9269   -1.9915    0.6995 H       1  UNL1        0.0529
     45 H           0.7830    0.2827    0.5710 H       1  UNL1        0.0493
     46 H           1.7211    1.4591    1.4502 H       1  UNL1        0.0493
     47 H           3.7938   -1.9128   -2.9328 H       1  UNL1        0.0629
     48 H           2.7493    0.8751   -4.0981 H       1  UNL1        0.0845
     49 H          -1.2534    1.9135   -3.3154 H       1  UNL1        0.1029
     50 H           1.2095    0.8905   -6.1498 H       1  UNL1        0.0456
     51 H          -0.0730    2.1507   -5.9710 H       1  UNL1        0.0456
     52 H          -0.4680    0.4069   -5.6846 H       1  UNL1        0.0456
     53 H           4.8002   -1.1026    1.8668 H       1  UNL1        0.0283
     54 H           6.3723   -0.3124    1.4855 H       1  UNL1        0.0283
     55 H           6.2899   -2.0911    1.8082 H       1  UNL1        0.0283
     56 H           3.5819    0.5608    3.0246 H       1  UNL1        0.0621
     57 H           7.5371   -2.3419   -3.8791 H       1  UNL1        0.0283
     58 H           6.1239   -1.4660   -4.5879 H       1  UNL1        0.0283
     59 H           6.0139   -3.2414   -4.2493 H       1  UNL1        0.0283
     60 H           3.8311   -0.5769    5.0957 H       1  UNL1        0.0624
     61 H          -0.6124   -1.1362    1.1202 H       1  UNL1        0.0278
     62 H          -1.3857   -1.4652    2.6781 H       1  UNL1        0.0278
     63 H          -0.4741   -2.7663    1.8225 H       1  UNL1        0.0278
     64 H           0.1300   -2.7075    4.3479 H       1  UNL1        0.0626
     65 H           4.0168   -1.5382    6.9177 H       1  UNL1        0.0624
     66 H           0.3583   -3.7544    6.1041 H       1  UNL1        0.0643
     67 H           4.2295   -2.7225    8.9986 H       1  UNL1        0.0618
     68 H           2.5691   -4.4053    9.6816 H       1  UNL1        0.0636
     69 H           0.0889   -7.2086    6.8015 H       1  UNL1        0.0468
     70 H          -0.7124   -7.6562    8.3570 H       1  UNL1        0.0468
     71 H           1.0916   -7.6210    8.2648 H       1  UNL1        0.0468
@<TRIPOS>BOND
     1    11     6    2
     2     6     4    1
     3     4     7    1
     4     7    18    1
     5    18    23   ar
     6    23    26    1
     7    23    27   ar
     8    27    28   ar
     9    28    29    1
    10    29    30   ar
    11    30    32   ar
    12    32    34   ar
    13    34    33   ar
    14    33    35    1
    15    35    36    2
    16    35    38    1
    17    35    37    2
    18    33    31   ar
    19    29    31   ar
    20    28    25   ar
    21    25    22   ar
    22    18    22   ar
    23     2     1    1
    24     3     5    1
    25     5     9   ar
    26     9    20    1
    27     9    21   ar
    28    21    19   ar
    29    19    24    1
    30    19     8   ar
    31     5     8   ar
    32     6    10    1
    33    10    14   ar
    34    14    16   ar
    35    16    17    1
    36    16    15   ar
    37    15    13   ar
    38    10    13   ar
    39     6    12    2
    40     3     2    1
    41     3     4    1
    42     1    39    1
    43     1    40    1
    44     1    41    1
    45     2    42    1
    46     2    43    1
    47     3    44    1
    48     7    45    1
    49     7    46    1
    50     8    47    1
    51    14    48    1
    52    15    49    1
    53    17    50    1
    54    17    51    1
    55    17    52    1
    56    20    53    1
    57    20    54    1
    58    20    55    1
    59    22    56    1
    60    24    57    1
    61    24    58    1
    62    24    59    1
    63    25    60    1
    64    26    61    1
    65    26    62    1
    66    26    63    1
    67    27    64    1
    68    30    65    1
    69    31    66    1
    70    32    67    1
    71    34    68    1
    72    38    69    1
    73    38    70    1
    74    38    71    1
