@<TRIPOS>MOLECULE
*****
 68 71 0 0 0
SMALL
GASTEIGER

@<TRIPOS>ATOM
      1 C          -5.4016    0.2943   -3.6256 C.3     1  UNL1        0.0128
      2 N          -4.8468   -0.0838   -2.3326 N.ar    1  UNL1       -0.3379
      3 C          -5.3976    0.1502   -1.1253 C.ar    1  UNL1        0.0980
      4 C          -3.6910   -0.7293   -2.1022 C.ar    1  UNL1        0.0507
      5 N          -4.6318   -0.3234   -0.1208 N.ar    1  UNL1       -0.2163
      6 C          -3.5703   -0.8779   -0.7395 C.ar    1  UNL1        0.2114
      7 S          -2.1946   -1.6266    0.1189 S.O2    1  UNL1        0.0803
      8 N          -2.4926   -2.8288    1.4166 N.3     1  UNL1       -0.1637
      9 O          -1.4082   -0.4903    0.7885 O.2     1  UNL1       -0.1513
     10 O          -1.1445   -2.2334   -0.8251 O.2     1  UNL1       -0.1513
     11 C          -1.2732   -3.4989    1.9640 C.3     1  UNL1        0.0551
     12 C          -3.6695   -3.6930    1.1102 C.3     1  UNL1        0.0465
     13 C          -1.6229   -4.4067    3.1331 C.ar    1  UNL1       -0.0187
     14 C          -0.1951   -2.5124    2.4530 C.3     1  UNL1       -0.0437
     15 C          -3.6032   -4.4804   -0.2075 C.ar    1  UNL1       -0.0287
     16 C          -1.2584   -5.7653    3.1526 C.ar    1  UNL1       -0.0468
     17 C          -2.3171   -4.0212    4.2941 C.ar    1  UNL1       -0.0083
     18 C          -2.6102   -5.4612   -0.3477 C.ar    1  UNL1       -0.0565
     19 C          -4.5274   -4.3238   -1.2851 C.ar    1  UNL1       -0.0454
     20 C          -1.6560   -6.4295    4.3033 C.ar    1  UNL1       -0.0127
     21 C          -2.8883   -2.6793    4.6360 C.3     1  UNL1       -0.0331
     22 S          -2.4606   -5.3546    5.3098 S.2     1  UNL1       -0.0984
     23 C          -2.4832   -6.2291   -1.5015 C.ar    1  UNL1       -0.0537
     24 C          -5.7123   -3.3841   -1.2904 C.3     1  UNL1       -0.0394
     25 C          -4.3804   -5.1056   -2.4487 C.ar    1  UNL1       -0.0508
     26 C          -1.4060   -7.8697    4.6010 C.3     1  UNL1       -0.0334
     27 C          -3.3571   -6.0673   -2.5922 C.ar    1  UNL1       -0.0176
     28 C          -3.2149   -6.9023   -3.8515 C.ar    1  UNL1       -0.0161
     29 C          -2.3194   -8.0004   -3.9135 C.ar    1  UNL1       -0.0539
     30 C          -3.9675   -6.6188   -5.0204 C.ar    1  UNL1       -0.0292
     31 C          -2.1895   -8.7664   -5.0741 C.ar    1  UNL1       -0.0594
     32 C          -3.8314   -7.3918   -6.1817 C.ar    1  UNL1        0.0884
     33 C          -2.9406   -8.4641   -6.2046 C.ar    1  UNL1       -0.0369
     34 S          -4.7885   -6.9969   -7.6492 S.O2    1  UNL1       -0.0059
     35 O          -6.1686   -6.5083   -7.1828 O.2     1  UNL1       -0.1696
     36 O          -5.2243   -8.3284   -8.2802 O.2     1  UNL1       -0.1696
     37 C          -4.2443   -5.9081   -8.9939 C.3     1  UNL1        0.0596
     38 H          -4.7279   -0.0279   -4.4480 H       1  UNL1        0.0456
     39 H          -5.5231    1.3970   -3.6713 H       1  UNL1        0.0456
     40 H          -6.3916   -0.1893   -3.7620 H       1  UNL1        0.0456
     41 H          -6.3406    0.6597   -0.9747 H       1  UNL1        0.1029
     42 H          -2.9941   -1.0601   -2.8614 H       1  UNL1        0.0845
     43 H          -0.7665   -4.0790    1.1703 H       1  UNL1        0.0527
     44 H          -4.5467   -3.0347    1.1571 H       1  UNL1        0.0493
     45 H          -3.8492   -4.4168    1.9301 H       1  UNL1        0.0493
     46 H          -0.5787   -1.8110    3.2191 H       1  UNL1        0.0248
     47 H           0.2439   -1.9407    1.6141 H       1  UNL1        0.0248
     48 H           0.6533   -3.0786    2.8956 H       1  UNL1        0.0248
     49 H          -0.7127   -6.2529    2.3556 H       1  UNL1        0.0629
     50 H          -1.9202   -5.6678    0.4443 H       1  UNL1        0.0621
     51 H          -2.7314   -1.9340    3.8346 H       1  UNL1        0.0283
     52 H          -2.4188   -2.3058    5.5694 H       1  UNL1        0.0283
     53 H          -3.9818   -2.7802    4.7954 H       1  UNL1        0.0283
     54 H          -1.6781   -6.9433   -1.5061 H       1  UNL1        0.0624
     55 H          -5.8485   -2.7685   -0.3913 H       1  UNL1        0.0278
     56 H          -6.6428   -3.9787   -1.4096 H       1  UNL1        0.0278
     57 H          -5.6354   -2.6987   -2.1579 H       1  UNL1        0.0278
     58 H          -5.1055   -4.9498   -3.2298 H       1  UNL1        0.0626
     59 H          -1.8307   -8.1385    5.5908 H       1  UNL1        0.0283
     60 H          -0.3131   -8.0634    4.6122 H       1  UNL1        0.0283
     61 H          -1.8823   -8.4991    3.8206 H       1  UNL1        0.0283
     62 H          -1.7102   -8.3015   -3.0791 H       1  UNL1        0.0624
     63 H          -4.6598   -5.7967   -5.0690 H       1  UNL1        0.0643
     64 H          -1.5003   -9.6011   -5.0953 H       1  UNL1        0.0618
     65 H          -2.8269   -9.0643   -7.0984 H       1  UNL1        0.0636
     66 H          -4.0490   -4.8922   -8.5933 H       1  UNL1        0.0468
     67 H          -5.0409   -5.8462   -9.7637 H       1  UNL1        0.0468
     68 H          -3.3256   -6.3223   -9.4580 H       1  UNL1        0.0468
@<TRIPOS>BOND
     1     9     7    2
     2     7     8    1
     3     8    12    1
     4    12    15    1
     5    15    19   ar
     6    19    24    1
     7    19    25   ar
     8    25    27   ar
     9    27    28    1
    10    28    29   ar
    11    29    31   ar
    12    31    33   ar
    13    33    32   ar
    14    32    34    1
    15    34    35    2
    16    34    37    1
    17    34    36    2
    18    32    30   ar
    19    28    30   ar
    20    27    23   ar
    21    23    18   ar
    22    15    18   ar
    23     8    11    1
    24    11    14    1
    25    11    13    1
    26    13    17   ar
    27    17    21    1
    28    17    22   ar
    29    22    20   ar
    30    20    26    1
    31    20    16   ar
    32    13    16   ar
    33     7     6    1
    34     6     4   ar
    35     4     2   ar
    36     2     1    1
    37     2     3   ar
    38     3     5   ar
    39     6     5   ar
    40     7    10    2
    41     1    38    1
    42     1    39    1
    43     1    40    1
    44     3    41    1
    45     4    42    1
    46    11    43    1
    47    12    44    1
    48    12    45    1
    49    14    46    1
    50    14    47    1
    51    14    48    1
    52    16    49    1
    53    18    50    1
    54    21    51    1
    55    21    52    1
    56    21    53    1
    57    23    54    1
    58    24    55    1
    59    24    56    1
    60    24    57    1
    61    25    58    1
    62    26    59    1
    63    26    60    1
    64    26    61    1
    65    29    62    1
    66    30    63    1
    67    31    64    1
    68    33    65    1
    69    37    66    1
    70    37    67    1
    71    37    68    1
