@<TRIPOS>MOLECULE
*****
 74 77 0 0 0
SMALL
GASTEIGER

@<TRIPOS>ATOM
      1 C           3.9892    2.7031   -0.2397 C.3     1  UNL1       -0.0635
      2 C           3.3307    2.4789    1.1217 C.3     1  UNL1       -0.0344
      3 C           3.2881    0.9827    1.5058 C.3     1  UNL1        0.0577
      4 N           2.6894    0.1041    0.4566 N.3     1  UNL1       -0.1634
      5 C           2.6948    0.7744    2.8978 C.ar    1  UNL1       -0.0184
      6 S           0.9488    0.2933    0.0298 S.O2    1  UNL1        0.0803
      7 C           3.0139   -1.3204    0.6985 C.3     1  UNL1        0.0465
      8 C           1.4136    1.2315    3.2676 C.ar    1  UNL1       -0.0468
      9 C           3.3522    0.1346    3.9689 C.ar    1  UNL1       -0.0083
     10 C           0.4561   -0.3156   -1.5788 C.ar    1  UNL1        0.2114
     11 O           0.5715    1.7723    0.1686 O.2     1  UNL1       -0.1513
     12 O           0.1429   -0.3684    1.1589 O.2     1  UNL1       -0.1513
     13 N           0.9921    0.1082   -2.7406 N.ar    1  UNL1       -0.2163
     14 C          -0.4874   -1.2866   -1.8252 C.ar    1  UNL1        0.0507
     15 C           0.3642   -0.6202   -3.6869 C.ar    1  UNL1        0.0980
     16 N          -0.5329   -1.4724   -3.1545 N.ar    1  UNL1       -0.3379
     17 C          -1.3752   -2.4117   -3.8831 C.3     1  UNL1        0.0128
     18 C           2.8009   -2.1482   -0.5554 C.ar    1  UNL1       -0.0287
     19 C           1.0736    0.9500    4.5811 C.ar    1  UNL1       -0.0127
     20 C           4.7140   -0.4938    4.0104 C.3     1  UNL1       -0.0331
     21 S           2.3420    0.1400    5.3144 S.2     1  UNL1       -0.0984
     22 C           3.5356   -1.7713   -1.6866 C.ar    1  UNL1       -0.0565
     23 C           1.9164   -3.2547   -0.6572 C.ar    1  UNL1       -0.0454
     24 C          -0.2142    1.3165    5.2388 C.3     1  UNL1       -0.0334
     25 C           3.4025   -2.4447   -2.8979 C.ar    1  UNL1       -0.0537
     26 C           1.0634   -3.7799    0.4757 C.3     1  UNL1       -0.0394
     27 C           1.7937   -3.9253   -1.8890 C.ar    1  UNL1       -0.0508
     28 C           2.5228   -3.5400   -3.0394 C.ar    1  UNL1       -0.0176
     29 C           2.3629   -4.2646   -4.3657 C.ar    1  UNL1       -0.0161
     30 C           1.4591   -5.3479   -4.5185 C.ar    1  UNL1       -0.0539
     31 C           3.1077   -3.8859   -5.5134 C.ar    1  UNL1       -0.0292
     32 C           1.3148   -6.0073   -5.7413 C.ar    1  UNL1       -0.0594
     33 C           2.9554   -4.5504   -6.7374 C.ar    1  UNL1        0.0887
     34 C           2.0596   -5.6125   -6.8469 C.ar    1  UNL1       -0.0368
     35 S           3.9216   -4.0419   -8.1638 S.O2    1  UNL1       -0.0033
     36 C           5.5846   -4.6695   -8.5639 C.3     1  UNL1        0.0681
     37 O           3.9810   -2.5061   -8.1458 O.2     1  UNL1       -0.1694
     38 O           3.0314   -4.2218   -9.4038 O.2     1  UNL1       -0.1694
     39 C           6.1264   -4.0233   -9.8329 C.3     1  UNL1       -0.0453
     40 H           4.0319    3.7911   -0.4569 H       1  UNL1        0.0230
     41 H           3.4039    2.2069   -1.0425 H       1  UNL1        0.0230
     42 H           5.0242    2.2999   -0.2403 H       1  UNL1        0.0230
     43 H           2.3283    2.9399    1.1174 H       1  UNL1        0.0281
     44 H           3.9220    3.0236    1.8906 H       1  UNL1        0.0281
     45 H           4.3598    0.7136    1.5432 H       1  UNL1        0.0529
     46 H           2.4579   -1.6697    1.5822 H       1  UNL1        0.0493
     47 H           4.0905   -1.4290    0.9555 H       1  UNL1        0.0493
     48 H           0.7450    1.7646    2.6118 H       1  UNL1        0.0629
     49 H          -1.0829   -1.8207   -1.0964 H       1  UNL1        0.0845
     50 H           0.5651   -0.5319   -4.7468 H       1  UNL1        0.1029
     51 H          -2.0132   -2.9890   -3.1803 H       1  UNL1        0.0456
     52 H          -0.7369   -3.1204   -4.4516 H       1  UNL1        0.0456
     53 H          -2.0278   -1.8578   -4.5900 H       1  UNL1        0.0456
     54 H           5.2617   -0.4410    3.0540 H       1  UNL1        0.0283
     55 H           4.6088   -1.5654    4.2792 H       1  UNL1        0.0283
     56 H           5.3247    0.0121    4.7865 H       1  UNL1        0.0283
     57 H           4.2190   -0.9314   -1.6335 H       1  UNL1        0.0621
     58 H          -0.2206    0.9724    6.2942 H       1  UNL1        0.0283
     59 H          -1.0571    0.8384    4.6976 H       1  UNL1        0.0283
     60 H          -0.3424    2.4188    5.2174 H       1  UNL1        0.0283
     61 H           4.0033   -2.0702   -3.7070 H       1  UNL1        0.0624
     62 H           1.1569   -3.2462    1.4325 H       1  UNL1        0.0278
     63 H           1.3271   -4.8413    0.6684 H       1  UNL1        0.0278
     64 H          -0.0061   -3.7303    0.1823 H       1  UNL1        0.0278
     65 H           1.1053   -4.7514   -1.9138 H       1  UNL1        0.0626
     66 H           0.8444   -5.7146   -3.7163 H       1  UNL1        0.0624
     67 H           3.8179   -3.0794   -5.4967 H       1  UNL1        0.0643
     68 H           0.6186   -6.8316   -5.8307 H       1  UNL1        0.0618
     69 H           1.9380   -6.1343   -7.7875 H       1  UNL1        0.0636
     70 H           5.5287   -5.7689   -8.7093 H       1  UNL1        0.0501
     71 H           6.2676   -4.4422   -7.7184 H       1  UNL1        0.0501
     72 H           5.4615   -4.2476  -10.6935 H       1  UNL1        0.0245
     73 H           7.1384   -4.4243  -10.0511 H       1  UNL1        0.0245
     74 H           6.2000   -2.9229   -9.7037 H       1  UNL1        0.0245
@<TRIPOS>BOND
     1    11     6    2
     2     6     4    1
     3     4     7    1
     4     7    18    1
     5    18    23   ar
     6    23    26    1
     7    23    27   ar
     8    27    28   ar
     9    28    29    1
    10    29    30   ar
    11    30    32   ar
    12    32    34   ar
    13    34    33   ar
    14    33    35    1
    15    35    37    2
    16    35    36    1
    17    36    39    1
    18    35    38    2
    19    33    31   ar
    20    29    31   ar
    21    28    25   ar
    22    25    22   ar
    23    18    22   ar
    24     2     1    1
    25     3     5    1
    26     5     9   ar
    27     9    20    1
    28     9    21   ar
    29    21    19   ar
    30    19    24    1
    31    19     8   ar
    32     5     8   ar
    33     6    10    1
    34    10    14   ar
    35    14    16   ar
    36    16    17    1
    37    16    15   ar
    38    15    13   ar
    39    10    13   ar
    40     6    12    2
    41     3     2    1
    42     3     4    1
    43     1    40    1
    44     1    41    1
    45     1    42    1
    46     2    43    1
    47     2    44    1
    48     3    45    1
    49     7    46    1
    50     7    47    1
    51     8    48    1
    52    14    49    1
    53    15    50    1
    54    17    51    1
    55    17    52    1
    56    17    53    1
    57    20    54    1
    58    20    55    1
    59    20    56    1
    60    22    57    1
    61    24    58    1
    62    24    59    1
    63    24    60    1
    64    25    61    1
    65    26    62    1
    66    26    63    1
    67    26    64    1
    68    27    65    1
    69    30    66    1
    70    31    67    1
    71    32    68    1
    72    34    69    1
    73    36    70    1
    74    36    71    1
    75    39    72    1
    76    39    73    1
    77    39    74    1
