@<TRIPOS>MOLECULE
*****
 74 77 0 0 0
SMALL
GASTEIGER

@<TRIPOS>ATOM
      1 C           7.1322   -0.9467   -1.7090 C.3     1  UNL1       -0.0652
      2 C           6.6131    0.2354   -0.8895 C.3     1  UNL1       -0.0541
      3 C           5.0984    0.1705   -0.5931 C.3     1  UNL1       -0.0318
      4 C           4.6395   -1.0487    0.2455 C.3     1  UNL1        0.0579
      5 N           3.1518   -1.0785    0.3282 N.3     1  UNL1       -0.1634
      6 C           5.3296   -1.3387    1.5900 C.ar    1  UNL1       -0.0184
      7 S           2.4168   -0.0436    1.6016 S.O2    1  UNL1        0.0803
      8 C           2.5765   -2.4408    0.3542 C.3     1  UNL1        0.0465
      9 C           5.3615   -2.6742    2.0506 C.ar    1  UNL1       -0.0468
     10 C           5.9938   -0.4674    2.4955 C.ar    1  UNL1       -0.0083
     11 C           0.7000    0.4060    1.3768 C.ar    1  UNL1        0.2114
     12 O           3.2859    1.2122    1.7316 O.2     1  UNL1       -0.1513
     13 O           2.6724   -0.7514    2.9417 O.2     1  UNL1       -0.1513
     14 N           0.2417    1.1166    0.3271 N.ar    1  UNL1       -0.2163
     15 C          -0.3460    0.0657    2.2041 C.ar    1  UNL1        0.0507
     16 C          -1.0894    1.1980    0.5301 C.ar    1  UNL1        0.0980
     17 N          -1.4665    0.5658    1.6590 N.ar    1  UNL1       -0.3379
     18 C          -2.8187    0.4372    2.1856 C.3     1  UNL1        0.0128
     19 C           1.1056   -2.4106   -0.0104 C.ar    1  UNL1       -0.0287
     20 C           6.0067   -2.8521    3.2607 C.ar    1  UNL1       -0.0127
     21 C           6.2299    1.0132    2.4739 C.3     1  UNL1       -0.0331
     22 S           6.5614   -1.3729    3.7968 S.2     1  UNL1       -0.0984
     23 C           0.7470   -1.8613   -1.2460 C.ar    1  UNL1       -0.0565
     24 C           0.0884   -2.9028    0.8404 C.ar    1  UNL1       -0.0454
     25 C           6.1837   -4.1538    3.9676 C.3     1  UNL1       -0.0334
     26 C          -0.5878   -1.7777   -1.6376 C.ar    1  UNL1       -0.0537
     27 C           0.4049   -3.5227    2.1788 C.3     1  UNL1       -0.0394
     28 C          -1.2564   -2.8119    0.4365 C.ar    1  UNL1       -0.0508
     29 C          -1.6305   -2.2444   -0.8054 C.ar    1  UNL1       -0.0176
     30 C          -3.0853   -2.1382   -1.2238 C.ar    1  UNL1       -0.0161
     31 C          -4.1403   -2.4452   -0.3268 C.ar    1  UNL1       -0.0539
     32 C          -3.4524   -1.7235   -2.5300 C.ar    1  UNL1       -0.0292
     33 C          -5.4775   -2.3435   -0.7172 C.ar    1  UNL1       -0.0594
     34 C          -4.7961   -1.6233   -2.9144 C.ar    1  UNL1        0.0884
     35 C          -5.8060   -1.9359   -2.0055 C.ar    1  UNL1       -0.0369
     36 S          -5.2199   -1.1060   -4.5814 S.O2    1  UNL1       -0.0059
     37 O          -4.2350    0.0040   -4.9801 O.2     1  UNL1       -0.1696
     38 O          -6.4929   -0.2508   -4.4861 O.2     1  UNL1       -0.1696
     39 C          -5.4077   -2.2102   -6.0081 C.3     1  UNL1        0.0596
     40 H           8.2078   -0.7904   -1.9364 H       1  UNL1        0.0230
     41 H           6.5753   -1.0260   -2.6666 H       1  UNL1        0.0230
     42 H           7.0440   -1.8981   -1.1463 H       1  UNL1        0.0230
     43 H           7.1996    0.3034    0.0471 H       1  UNL1        0.0263
     44 H           6.8021    1.1605   -1.4761 H       1  UNL1        0.0263
     45 H           4.5659    0.1325   -1.5696 H       1  UNL1        0.0284
     46 H           4.7749    1.1179   -0.1389 H       1  UNL1        0.0284
     47 H           4.9515   -1.8857   -0.4138 H       1  UNL1        0.0529
     48 H           2.7498   -2.9026    1.3429 H       1  UNL1        0.0493
     49 H           3.0754   -3.0806   -0.4059 H       1  UNL1        0.0493
     50 H           4.9320   -3.5055    1.5082 H       1  UNL1        0.0629
     51 H          -0.2981   -0.5088    3.1199 H       1  UNL1        0.0845
     52 H          -1.7698    1.7060   -0.1410 H       1  UNL1        0.1029
     53 H          -2.8717    0.8955    3.1953 H       1  UNL1        0.0456
     54 H          -3.0901   -0.6372    2.2552 H       1  UNL1        0.0456
     55 H          -3.5466    0.9476    1.5193 H       1  UNL1        0.0456
     56 H           5.8221    1.5325    1.6033 H       1  UNL1        0.0283
     57 H           7.3225    1.2063    2.5002 H       1  UNL1        0.0283
     58 H           5.7687    1.4649    3.3767 H       1  UNL1        0.0283
     59 H           1.5121   -1.4805   -1.9123 H       1  UNL1        0.0621
     60 H           6.7409   -4.0055    4.9163 H       1  UNL1        0.0283
     61 H           6.7518   -4.8545    3.3209 H       1  UNL1        0.0283
     62 H           5.1894   -4.5906    4.1971 H       1  UNL1        0.0283
     63 H          -0.7683   -1.3251   -2.5967 H       1  UNL1        0.0624
     64 H           1.0537   -4.4123    2.0365 H       1  UNL1        0.0278
     65 H          -0.5111   -3.8539    2.7123 H       1  UNL1        0.0278
     66 H           0.9213   -2.7864    2.8272 H       1  UNL1        0.0278
     67 H          -1.9941   -3.1994    1.1161 H       1  UNL1        0.0626
     68 H          -3.9701   -2.7589    0.6881 H       1  UNL1        0.0624
     69 H          -2.7206   -1.4798   -3.2795 H       1  UNL1        0.0643
     70 H          -6.2645   -2.5825   -0.0132 H       1  UNL1        0.0618
     71 H          -6.8467   -1.8645   -2.2946 H       1  UNL1        0.0636
     72 H          -4.4556   -2.7508   -6.1868 H       1  UNL1        0.0468
     73 H          -5.6564   -1.6106   -6.9080 H       1  UNL1        0.0468
     74 H          -6.2293   -2.9302   -5.8150 H       1  UNL1        0.0468
@<TRIPOS>BOND
     1    12     7    2
     2     7     5    1
     3     5     8    1
     4     8    19    1
     5    19    24   ar
     6    24    27    1
     7    24    28   ar
     8    28    29   ar
     9    29    30    1
    10    30    31   ar
    11    31    33   ar
    12    33    35   ar
    13    35    34   ar
    14    34    36    1
    15    36    37    2
    16    36    39    1
    17    36    38    2
    18    34    32   ar
    19    30    32   ar
    20    29    26   ar
    21    26    23   ar
    22    19    23   ar
    23     3     2    1
    24     2     1    1
    25     4     6    1
    26     6    10   ar
    27    10    21    1
    28    10    22   ar
    29    22    20   ar
    30    20    25    1
    31    20     9   ar
    32     6     9   ar
    33     7    11    1
    34    11    15   ar
    35    15    17   ar
    36    17    18    1
    37    17    16   ar
    38    16    14   ar
    39    11    14   ar
    40     7    13    2
    41     4     3    1
    42     4     5    1
    43     1    40    1
    44     1    41    1
    45     1    42    1
    46     2    43    1
    47     2    44    1
    48     3    45    1
    49     3    46    1
    50     4    47    1
    51     8    48    1
    52     8    49    1
    53     9    50    1
    54    15    51    1
    55    16    52    1
    56    18    53    1
    57    18    54    1
    58    18    55    1
    59    21    56    1
    60    21    57    1
    61    21    58    1
    62    23    59    1
    63    25    60    1
    64    25    61    1
    65    25    62    1
    66    26    63    1
    67    27    64    1
    68    27    65    1
    69    27    66    1
    70    28    67    1
    71    31    68    1
    72    32    69    1
    73    33    70    1
    74    35    71    1
    75    39    72    1
    76    39    73    1
    77    39    74    1
