@<TRIPOS>MOLECULE
*****
 80 83 0 0 0
SMALL
GASTEIGER

@<TRIPOS>ATOM
      1 C           4.6001    7.1720   -2.1934 C.3     1  UNL1       -0.0653
      2 C           3.9862    5.8729   -1.6797 C.3     1  UNL1       -0.0559
      3 C           5.0433    4.9897   -1.0060 C.3     1  UNL1       -0.0515
      4 C           4.4185    3.6717   -0.5072 C.3     1  UNL1       -0.0316
      5 C           5.4655    2.7337    0.1699 C.3     1  UNL1        0.0579
      6 N           4.9482    1.3487    0.3978 N.3     1  UNL1       -0.1634
      7 C           6.0332    3.2967    1.4805 C.ar    1  UNL1       -0.0184
      8 S           3.4434    1.2684    1.3675 S.O2    1  UNL1        0.0803
      9 C           4.7578    0.5493   -0.8357 C.3     1  UNL1        0.0465
     10 C           5.4980    4.4021    2.1847 C.ar    1  UNL1       -0.0468
     11 C           7.1516    2.7615    2.1426 C.ar    1  UNL1       -0.0083
     12 C           1.8557    1.3731    0.5424 C.ar    1  UNL1        0.2114
     13 O           3.5865    2.2413    2.5458 O.2     1  UNL1       -0.1513
     14 O           3.5637   -0.0799    2.0940 O.2     1  UNL1       -0.1513
     15 N           1.5942    2.1696   -0.5130 N.ar    1  UNL1       -0.2163
     16 C           0.7269    0.6614    0.8800 C.ar    1  UNL1        0.0507
     17 C           0.2996    1.9303   -0.8058 C.ar    1  UNL1        0.0980
     18 N          -0.2450    1.0207    0.0251 N.ar    1  UNL1       -0.3379
     19 C          -1.6168    0.5300   -0.0049 C.3     1  UNL1        0.0128
     20 C           6.0768    0.1272   -1.4495 C.ar    1  UNL1       -0.0287
     21 C           6.1776    4.7069    3.3540 C.ar    1  UNL1       -0.0127
     22 C           8.0106    1.6189    1.7163 C.3     1  UNL1       -0.0331
     23 S           7.4471    3.6332    3.5497 S.2     1  UNL1       -0.0984
     24 C           6.9034   -0.7209   -0.7063 C.ar    1  UNL1       -0.0565
     25 C           6.4936    0.5280   -2.7395 C.ar    1  UNL1       -0.0454
     26 C           5.8292    5.8124    4.2932 C.3     1  UNL1       -0.0334
     27 C           8.1279   -1.1584   -1.2076 C.ar    1  UNL1       -0.0537
     28 C           5.6471    1.4324   -3.5995 C.3     1  UNL1       -0.0394
     29 C           7.7310    0.0794   -3.2388 C.ar    1  UNL1       -0.0508
     30 C           8.5806   -0.7708   -2.4891 C.ar    1  UNL1       -0.0176
     31 C           9.9155   -1.2482   -3.0350 C.ar    1  UNL1       -0.0161
     32 C          10.8177   -1.9959   -2.2353 C.ar    1  UNL1       -0.0539
     33 C          10.3198   -0.9677   -4.3664 C.ar    1  UNL1       -0.0292
     34 C          12.0459   -2.4311   -2.7388 C.ar    1  UNL1       -0.0594
     35 C          11.5513   -1.4116   -4.8660 C.ar    1  UNL1        0.0887
     36 C          12.4132   -2.1407   -4.0480 C.ar    1  UNL1       -0.0368
     37 S          12.0228   -1.0337   -6.5577 S.O2    1  UNL1       -0.0033
     38 C          12.8395    0.5069   -7.0861 C.3     1  UNL1        0.0681
     39 O          10.7725   -1.2340   -7.4288 O.2     1  UNL1       -0.1694
     40 O          12.8542   -2.2182   -7.0757 O.2     1  UNL1       -0.1694
     41 C          13.0887    0.5101   -8.5892 C.3     1  UNL1       -0.0453
     42 H           3.8135    7.7905   -2.6747 H       1  UNL1        0.0230
     43 H           5.3907    6.9549   -2.9430 H       1  UNL1        0.0230
     44 H           5.0418    7.7488   -1.3530 H       1  UNL1        0.0230
     45 H           3.1855    6.1183   -0.9483 H       1  UNL1        0.0263
     46 H           3.5327    5.3279   -2.5363 H       1  UNL1        0.0263
     47 H           5.8442    4.7542   -1.7413 H       1  UNL1        0.0266
     48 H           5.5017    5.5575   -0.1727 H       1  UNL1        0.0266
     49 H           3.9955    3.1885   -1.4056 H       1  UNL1        0.0284
     50 H           3.5759    3.8776    0.1844 H       1  UNL1        0.0284
     51 H           6.3189    2.6757   -0.5407 H       1  UNL1        0.0529
     52 H           4.1029    1.0786   -1.5468 H       1  UNL1        0.0493
     53 H           4.2175   -0.3936   -0.5966 H       1  UNL1        0.0493
     54 H           4.6314    4.9688    1.8761 H       1  UNL1        0.0629
     55 H           0.6227   -0.0582    1.6819 H       1  UNL1        0.0845
     56 H          -0.2344    2.4141   -1.6134 H       1  UNL1        0.1029
     57 H          -1.7817   -0.2159    0.8019 H       1  UNL1        0.0456
     58 H          -1.8200    0.0497   -0.9850 H       1  UNL1        0.0456
     59 H          -2.3194    1.3773    0.1405 H       1  UNL1        0.0456
     60 H           7.6859    1.2217    0.7453 H       1  UNL1        0.0283
     61 H           7.9689    0.8138    2.4787 H       1  UNL1        0.0283
     62 H           9.0585    1.9676    1.6083 H       1  UNL1        0.0283
     63 H           6.5955   -1.0481    0.2802 H       1  UNL1        0.0621
     64 H           6.5360    5.8293    5.1491 H       1  UNL1        0.0283
     65 H           4.7991    5.6626    4.6785 H       1  UNL1        0.0283
     66 H           5.8839    6.7845    3.7603 H       1  UNL1        0.0283
     67 H           8.6926   -1.8088   -0.5634 H       1  UNL1        0.0624
     68 H           5.4910    2.4019   -3.0856 H       1  UNL1        0.0278
     69 H           4.6669    0.9529   -3.8033 H       1  UNL1        0.0278
     70 H           6.1263    1.6459   -4.5783 H       1  UNL1        0.0278
     71 H           8.0077    0.4198   -4.2203 H       1  UNL1        0.0626
     72 H          10.6109   -2.2560   -1.2122 H       1  UNL1        0.0624
     73 H           9.7024   -0.4125   -5.0494 H       1  UNL1        0.0643
     74 H          12.7180   -2.9971   -2.1062 H       1  UNL1        0.0618
     75 H          13.3688   -2.4838   -4.4235 H       1  UNL1        0.0636
     76 H          13.8099    0.6002   -6.5548 H       1  UNL1        0.0501
     77 H          12.1888    1.3671   -6.8225 H       1  UNL1        0.0501
     78 H          13.7468   -0.3382   -8.8725 H       1  UNL1        0.0245
     79 H          13.5858    1.4589   -8.8815 H       1  UNL1        0.0245
     80 H          12.1277    0.4279   -9.1394 H       1  UNL1        0.0245
@<TRIPOS>BOND
     1    13     8    2
     2     8     6    1
     3     6     9    1
     4     9    20    1
     5    20    25   ar
     6    25    28    1
     7    25    29   ar
     8    29    30   ar
     9    30    31    1
    10    31    32   ar
    11    32    34   ar
    12    34    36   ar
    13    36    35   ar
    14    35    37    1
    15    37    39    2
    16    37    38    1
    17    38    41    1
    18    37    40    2
    19    35    33   ar
    20    31    33   ar
    21    30    27   ar
    22    27    24   ar
    23    20    24   ar
    24     4     3    1
    25     3     2    1
    26     2     1    1
    27     5     7    1
    28     7    11   ar
    29    11    22    1
    30    11    23   ar
    31    23    21   ar
    32    21    26    1
    33    21    10   ar
    34     7    10   ar
    35     8    12    1
    36    12    16   ar
    37    16    18   ar
    38    18    19    1
    39    18    17   ar
    40    17    15   ar
    41    12    15   ar
    42     8    14    2
    43     5     4    1
    44     5     6    1
    45     1    42    1
    46     1    43    1
    47     1    44    1
    48     2    45    1
    49     2    46    1
    50     3    47    1
    51     3    48    1
    52     4    49    1
    53     4    50    1
    54     5    51    1
    55     9    52    1
    56     9    53    1
    57    10    54    1
    58    16    55    1
    59    17    56    1
    60    19    57    1
    61    19    58    1
    62    19    59    1
    63    22    60    1
    64    22    61    1
    65    22    62    1
    66    24    63    1
    67    26    64    1
    68    26    65    1
    69    26    66    1
    70    27    67    1
    71    28    68    1
    72    28    69    1
    73    28    70    1
    74    29    71    1
    75    32    72    1
    76    33    73    1
    77    34    74    1
    78    36    75    1
    79    38    76    1
    80    38    77    1
    81    41    78    1
    82    41    79    1
    83    41    80    1
