@<TRIPOS>MOLECULE
*****
 77 80 0 0 0
SMALL
GASTEIGER

@<TRIPOS>ATOM
      1 C           5.4198    4.6036    2.4672 C.3     1  UNL1       -0.0652
      2 C           5.6941    3.1688    2.0266 C.3     1  UNL1       -0.0541
      3 C           4.3846    2.3677    1.9095 C.3     1  UNL1       -0.0318
      4 C           4.6119    0.9197    1.4189 C.3     1  UNL1        0.0579
      5 N           3.2973    0.2951    1.1052 N.3     1  UNL1       -0.1634
      6 C           5.5483   -0.0088    2.2165 C.ar    1  UNL1       -0.0184
      7 S           2.3928   -0.3795    2.5036 S.O2    1  UNL1        0.0803
      8 C           3.3206   -0.6533   -0.0278 C.3     1  UNL1        0.0465
      9 C           6.1457   -1.0962    1.5397 C.ar    1  UNL1       -0.0468
     10 C           5.9676    0.0404    3.5753 C.ar    1  UNL1       -0.0083
     11 C           0.6128   -0.4291    2.3404 C.ar    1  UNL1        0.2114
     12 O           2.8097    0.4070    3.7518 O.2     1  UNL1       -0.1513
     13 O           2.9982   -1.7654    2.7796 O.2     1  UNL1       -0.1513
     14 N          -0.1558    0.6633    2.1609 N.ar    1  UNL1       -0.2163
     15 C          -0.1726   -1.5592    2.3429 C.ar    1  UNL1        0.0507
     16 C          -1.4104    0.1789    2.0553 C.ar    1  UNL1        0.0980
     17 N          -1.4431   -1.1637    2.1598 N.ar    1  UNL1       -0.3379
     18 C          -2.6258   -2.0109    2.0803 C.3     1  UNL1        0.0128
     19 C           1.9208   -0.9160   -0.5449 C.ar    1  UNL1       -0.0287
     20 C           6.9813   -1.8747    2.3192 C.ar    1  UNL1       -0.0127
     21 C           5.6343    0.9746    4.7011 C.3     1  UNL1       -0.0331
     22 S           7.0163   -1.2454    3.8631 S.2     1  UNL1       -0.0984
     23 C           1.4207   -2.2229   -0.4833 C.ar    1  UNL1       -0.0565
     24 C           1.0957    0.1051   -1.0730 C.ar    1  UNL1       -0.0454
     25 C           7.7353   -3.0749    1.8535 C.3     1  UNL1       -0.0334
     26 C           0.1300   -2.5226   -0.9143 C.ar    1  UNL1       -0.0537
     27 C           1.5403    1.5419   -1.1976 C.3     1  UNL1       -0.0394
     28 C          -0.2046   -0.2094   -1.5055 C.ar    1  UNL1       -0.0508
     29 C          -0.7236   -1.5246   -1.4341 C.ar    1  UNL1       -0.0176
     30 C          -2.1328   -1.8511   -1.8919 C.ar    1  UNL1       -0.0161
     31 C          -2.7081   -3.1269   -1.6621 C.ar    1  UNL1       -0.0539
     32 C          -2.9357   -0.8957   -2.5664 C.ar    1  UNL1       -0.0292
     33 C          -4.0062   -3.4243   -2.0829 C.ar    1  UNL1       -0.0594
     34 C          -4.2372   -1.2012   -2.9860 C.ar    1  UNL1        0.0887
     35 C          -4.7685   -2.4673   -2.7437 C.ar    1  UNL1       -0.0368
     36 S          -5.2162    0.0318   -3.8500 S.O2    1  UNL1       -0.0033
     37 C          -5.1870    0.2916   -5.6532 C.3     1  UNL1        0.0681
     38 O          -4.9507    1.3824   -3.1661 O.2     1  UNL1       -0.1694
     39 O          -6.6784   -0.1615   -3.4174 O.2     1  UNL1       -0.1694
     40 C          -6.1198    1.4248   -6.0618 C.3     1  UNL1       -0.0453
     41 H           6.3772    5.1618    2.5353 H       1  UNL1        0.0230
     42 H           4.9310    4.6120    3.4648 H       1  UNL1        0.0230
     43 H           4.7613    5.1145    1.7328 H       1  UNL1        0.0230
     44 H           6.2068    3.1894    1.0404 H       1  UNL1        0.0263
     45 H           6.3809    2.7020    2.7589 H       1  UNL1        0.0263
     46 H           3.7513    2.8804    1.1511 H       1  UNL1        0.0284
     47 H           3.8004    2.4074    2.8413 H       1  UNL1        0.0284
     48 H           5.1467    1.1037    0.4585 H       1  UNL1        0.0529
     49 H           3.7924   -1.6042    0.2922 H       1  UNL1        0.0493
     50 H           3.9191   -0.2472   -0.8717 H       1  UNL1        0.0493
     51 H           5.9889   -1.3110    0.4921 H       1  UNL1        0.0629
     52 H           0.1556   -2.5843    2.4567 H       1  UNL1        0.0845
     53 H          -2.2838    0.7987    1.8988 H       1  UNL1        0.1029
     54 H          -2.3475   -3.0804    2.1933 H       1  UNL1        0.0456
     55 H          -3.1187   -1.8711    1.0954 H       1  UNL1        0.0456
     56 H          -3.3369   -1.7362    2.8873 H       1  UNL1        0.0456
     57 H           4.9378    1.7775    4.4490 H       1  UNL1        0.0283
     58 H           6.5695    1.4450    5.0698 H       1  UNL1        0.0283
     59 H           5.1811    0.3922    5.5301 H       1  UNL1        0.0283
     60 H           2.0307   -3.0249   -0.0857 H       1  UNL1        0.0621
     61 H           8.3305   -3.5043    2.6864 H       1  UNL1        0.0283
     62 H           8.4217   -2.7872    1.0301 H       1  UNL1        0.0283
     63 H           7.0227   -3.8423    1.4857 H       1  UNL1        0.0283
     64 H          -0.1672   -3.5529   -0.8275 H       1  UNL1        0.0624
     65 H           2.5792    1.7180   -0.8639 H       1  UNL1        0.0278
     66 H           0.8707    2.1903   -0.5940 H       1  UNL1        0.0278
     67 H           1.4802    1.8542   -2.2615 H       1  UNL1        0.0278
     68 H          -0.7933    0.6080   -1.8847 H       1  UNL1        0.0626
     69 H          -2.1860   -3.9168   -1.1509 H       1  UNL1        0.0624
     70 H          -2.5799    0.0934   -2.7936 H       1  UNL1        0.0643
     71 H          -4.4230   -4.4054   -1.8938 H       1  UNL1        0.0618
     72 H          -5.7719   -2.7133   -3.0671 H       1  UNL1        0.0636
     73 H          -5.5077   -0.6447   -6.1566 H       1  UNL1        0.0501
     74 H          -4.1507    0.5422   -5.9634 H       1  UNL1        0.0501
     75 H          -7.1643    1.1885   -5.7688 H       1  UNL1        0.0245
     76 H          -6.0808    1.5590   -7.1633 H       1  UNL1        0.0245
     77 H          -5.8086    2.3739   -5.5766 H       1  UNL1        0.0245
@<TRIPOS>BOND
     1    12     7    2
     2     7     5    1
     3     5     8    1
     4     8    19    1
     5    19    24   ar
     6    24    27    1
     7    24    28   ar
     8    28    29   ar
     9    29    30    1
    10    30    31   ar
    11    31    33   ar
    12    33    35   ar
    13    35    34   ar
    14    34    36    1
    15    36    38    2
    16    36    37    1
    17    37    40    1
    18    36    39    2
    19    34    32   ar
    20    30    32   ar
    21    29    26   ar
    22    26    23   ar
    23    19    23   ar
    24     3     2    1
    25     2     1    1
    26     4     6    1
    27     6    10   ar
    28    10    21    1
    29    10    22   ar
    30    22    20   ar
    31    20    25    1
    32    20     9   ar
    33     6     9   ar
    34     7    11    1
    35    11    15   ar
    36    15    17   ar
    37    17    18    1
    38    17    16   ar
    39    16    14   ar
    40    11    14   ar
    41     7    13    2
    42     4     3    1
    43     4     5    1
    44     1    41    1
    45     1    42    1
    46     1    43    1
    47     2    44    1
    48     2    45    1
    49     3    46    1
    50     3    47    1
    51     4    48    1
    52     8    49    1
    53     8    50    1
    54     9    51    1
    55    15    52    1
    56    16    53    1
    57    18    54    1
    58    18    55    1
    59    18    56    1
    60    21    57    1
    61    21    58    1
    62    21    59    1
    63    23    60    1
    64    25    61    1
    65    25    62    1
    66    25    63    1
    67    26    64    1
    68    27    65    1
    69    27    66    1
    70    27    67    1
    71    28    68    1
    72    31    69    1
    73    32    70    1
    74    33    71    1
    75    35    72    1
    76    37    73    1
    77    37    74    1
    78    40    75    1
    79    40    76    1
    80    40    77    1
