@<TRIPOS>MOLECULE
*****
 71 74 0 0 0
SMALL
GASTEIGER

@<TRIPOS>ATOM
      1 C           2.0631   -1.4088   -3.6738 C.3     1  UNL1       -0.0453
      2 C           1.3512   -2.4498   -2.8187 C.3     1  UNL1        0.0681
      3 S           2.5451   -3.5454   -1.9854 S.O2    1  UNL1       -0.0033
      4 C           2.0988   -4.8798   -0.8688 C.ar    1  UNL1        0.0887
      5 O           3.4877   -4.1285   -3.0503 O.2     1  UNL1       -0.1694
      6 O           3.5592   -2.6631   -1.2403 O.2     1  UNL1       -0.1694
      7 C           2.0622   -6.1969   -1.3256 C.ar    1  UNL1       -0.0368
      8 C           1.7823   -4.5929    0.4648 C.ar    1  UNL1       -0.0292
      9 C           1.7183   -7.2240   -0.4526 C.ar    1  UNL1       -0.0594
     10 C           1.4274   -5.6183    1.3788 C.ar    1  UNL1       -0.0161
     11 C           1.4071   -6.9452    0.8805 C.ar    1  UNL1       -0.0539
     12 C           1.0924   -5.3104    2.8257 C.ar    1  UNL1       -0.0176
     13 C           0.9321   -6.3379    3.7792 C.ar    1  UNL1       -0.0537
     14 C           0.9338   -3.9814    3.2821 C.ar    1  UNL1       -0.0508
     15 C           0.6442   -6.0517    5.1119 C.ar    1  UNL1       -0.0565
     16 C           0.6411   -3.6747    4.6237 C.ar    1  UNL1       -0.0454
     17 C           0.5018   -4.7320    5.5629 C.ar    1  UNL1       -0.0287
     18 C           0.5070   -2.2053    4.9541 C.3     1  UNL1       -0.0394
     19 C           0.2138   -4.5430    7.0444 C.3     1  UNL1        0.0465
     20 N           1.2791   -5.1401    7.8877 N.3     1  UNL1       -0.1637
     21 S           2.8767   -4.4290    7.4419 S.O2    1  UNL1        0.0803
     22 C           1.0125   -5.0544    9.3536 C.3     1  UNL1        0.0551
     23 C           3.6933   -5.1498    6.0237 C.ar    1  UNL1        0.2114
     24 O           3.7860   -4.4665    8.6773 O.2     1  UNL1       -0.1513
     25 O           2.6461   -2.9181    7.2765 O.2     1  UNL1       -0.1513
     26 C           1.9475   -5.9883   10.1049 C.ar    1  UNL1       -0.0187
     27 C          -0.4258   -5.4624    9.7389 C.3     1  UNL1       -0.0437
     28 N           4.1244   -6.4258    5.9747 N.ar    1  UNL1       -0.2163
     29 C           3.9459   -4.5238    4.8242 C.ar    1  UNL1        0.0507
     30 C           4.6377   -6.5608    4.7344 C.ar    1  UNL1        0.0980
     31 N           4.5366   -5.4231    4.0201 N.ar    1  UNL1       -0.3379
     32 C           4.9750   -5.2208    2.6453 C.3     1  UNL1        0.0128
     33 C           2.0238   -7.3607    9.7983 C.ar    1  UNL1       -0.0468
     34 C           2.8113   -5.6243   11.1545 C.ar    1  UNL1       -0.0083
     35 C           2.9317   -8.0552   10.5832 C.ar    1  UNL1       -0.0127
     36 C           3.0167   -4.2775   11.7803 C.3     1  UNL1       -0.0331
     37 S           3.6460   -6.9925   11.6671 S.2     1  UNL1       -0.0984
     38 C           3.2285   -9.5133   10.4801 C.3     1  UNL1       -0.0334
     39 H           1.3121   -0.7564   -4.1671 H       1  UNL1        0.0245
     40 H           2.6725   -1.9057   -4.4578 H       1  UNL1        0.0245
     41 H           2.7227   -0.7769   -3.0425 H       1  UNL1        0.0245
     42 H           0.7407   -1.9326   -2.0487 H       1  UNL1        0.0501
     43 H           0.6893   -3.0635   -3.4653 H       1  UNL1        0.0501
     44 H           2.3004   -6.4291   -2.3555 H       1  UNL1        0.0636
     45 H           1.8360   -3.5586    0.7547 H       1  UNL1        0.0643
     46 H           1.6910   -8.2454   -0.8105 H       1  UNL1        0.0618
     47 H           1.1443   -7.7907    1.4923 H       1  UNL1        0.0624
     48 H           1.0404   -7.3796    3.5321 H       1  UNL1        0.0624
     49 H           1.0286   -3.1457    2.6103 H       1  UNL1        0.0626
     50 H           0.5419   -6.8760    5.8083 H       1  UNL1        0.0621
     51 H           0.2793   -1.9687    6.0034 H       1  UNL1        0.0278
     52 H          -0.3076   -1.7663    4.3400 H       1  UNL1        0.0278
     53 H           1.4573   -1.6877    4.7039 H       1  UNL1        0.0278
     54 H           0.0579   -3.4970    7.3521 H       1  UNL1        0.0493
     55 H          -0.7465   -5.0715    7.2113 H       1  UNL1        0.0493
     56 H           1.1342   -4.0048    9.6835 H       1  UNL1        0.0527
     57 H          -0.6592   -6.4899    9.3867 H       1  UNL1        0.0248
     58 H          -1.1753   -4.7542    9.3309 H       1  UNL1        0.0248
     59 H          -0.5424   -5.4293   10.8440 H       1  UNL1        0.0248
     60 H           3.7082   -3.5027    4.5555 H       1  UNL1        0.0845
     61 H           5.0719   -7.4785    4.3594 H       1  UNL1        0.1029
     62 H           4.7547   -4.1834    2.3143 H       1  UNL1        0.0456
     63 H           4.4428   -5.9297    1.9765 H       1  UNL1        0.0456
     64 H           6.0683   -5.3993    2.5717 H       1  UNL1        0.0456
     65 H           1.4367   -7.8323    9.0203 H       1  UNL1        0.0629
     66 H           2.3877   -3.4879   11.3324 H       1  UNL1        0.0283
     67 H           4.0797   -3.9802   11.6661 H       1  UNL1        0.0283
     68 H           2.7744   -4.3380   12.8615 H       1  UNL1        0.0283
     69 H           3.9957   -9.8044   11.2279 H       1  UNL1        0.0283
     70 H           3.6096   -9.7442    9.4635 H       1  UNL1        0.0283
     71 H           2.3026  -10.0961   10.6666 H       1  UNL1        0.0283
@<TRIPOS>BOND
     1    24    21    2
     2    21    20    1
     3    20    19    1
     4    19    17    1
     5    17    16   ar
     6    16    18    1
     7    16    14   ar
     8    14    12   ar
     9    12    10    1
    10    10    11   ar
    11    11     9   ar
    12     9     7   ar
    13     7     4   ar
    14     4     3    1
    15     3     5    2
    16     3     2    1
    17     2     1    1
    18     3     6    2
    19     4     8   ar
    20    10     8   ar
    21    12    13   ar
    22    13    15   ar
    23    17    15   ar
    24    20    22    1
    25    22    27    1
    26    22    26    1
    27    26    34   ar
    28    34    36    1
    29    34    37   ar
    30    37    35   ar
    31    35    38    1
    32    35    33   ar
    33    26    33   ar
    34    21    23    1
    35    23    29   ar
    36    29    31   ar
    37    31    32    1
    38    31    30   ar
    39    30    28   ar
    40    23    28   ar
    41    21    25    2
    42     1    39    1
    43     1    40    1
    44     1    41    1
    45     2    42    1
    46     2    43    1
    47     7    44    1
    48     8    45    1
    49     9    46    1
    50    11    47    1
    51    13    48    1
    52    14    49    1
    53    15    50    1
    54    18    51    1
    55    18    52    1
    56    18    53    1
    57    19    54    1
    58    19    55    1
    59    22    56    1
    60    27    57    1
    61    27    58    1
    62    27    59    1
    63    29    60    1
    64    30    61    1
    65    32    62    1
    66    32    63    1
    67    32    64    1
    68    33    65    1
    69    36    66    1
    70    36    67    1
    71    36    68    1
    72    38    69    1
    73    38    70    1
    74    38    71    1
