MODEL 1
REMARK VINA RESULT:    -7.394      0.000      0.000
REMARK INTER + INTRA:         -13.436
REMARK INTER:                 -11.391
REMARK INTRA:                  -2.045
REMARK UNBOUND:                -2.152
REMARK  9 active torsions:
REMARK  status: ('A' for Active; 'I' for Inactive)
REMARK    1  A    between atoms: S_3  and  C_2 
REMARK    2  A    between atoms: C_4  and  S_3 
REMARK    3  A    between atoms: C_12  and  C_10 
REMARK    4  A    between atoms: C_19  and  C_17 
REMARK    5  A    between atoms: N_20  and  C_19 
REMARK    6  A    between atoms: S_21  and  N_20 
REMARK    7  A    between atoms: N_20  and  C_22 
REMARK    8  A    between atoms: S_21  and  C_23 
REMARK    9  A    between atoms: C_22  and  C_26 
ROOT
ATOM      1  C   UNL d   1      54.077  16.573  -2.565  0.00  0.00     0.147 C 
ENDROOT
BRANCH   1   2
ATOM      2  N   UNL d   1      54.720  17.363  -3.642  0.00  0.00    -0.192 NA
BRANCH   2   3
ATOM      3  S   UNL d   1      55.447  18.858  -2.941  0.00  0.00     0.263 S 
ATOM      4  O   UNL d   1      56.151  19.624  -4.068  0.00  0.00    -0.204 OA
ATOM      5  O   UNL d   1      56.641  18.397  -2.088  0.00  0.00    -0.204 OA
BRANCH   3   6
ATOM      6  C   UNL d   1      54.342  19.932  -2.035  0.00  0.00     0.183 A 
ATOM      7  C   UNL d   1      53.934  19.766  -0.732  0.00  0.00     0.136 A 
ATOM      8  N   UNL d   1      53.087  20.769  -0.447  0.00  0.00    -0.353 N 
ATOM      9  C   UNL d   1      52.400  20.991   0.818  0.00  0.00     0.156 C 
ATOM     10  C   UNL d   1      52.999  21.519  -1.563  0.00  0.00     0.210 A 
ATOM     11  N   UNL d   1      53.762  21.028  -2.562  0.00  0.00    -0.229 NA
ENDBRANCH   3   6
ENDBRANCH   2   3
BRANCH   2  12
ATOM     12  C   UNL d   1      55.705  16.599  -4.462  0.00  0.00     0.104 C 
ATOM     13  C   UNL d   1      55.569  15.067  -4.320  0.00  0.00     0.032 C 
BRANCH  12  14
ATOM     14  C   UNL d   1      55.502  16.923  -5.934  0.00  0.00    -0.026 A 
ATOM     15  C   UNL d   1      56.515  17.038  -6.904  0.00  0.00    -0.013 A 
ATOM     16  C   UNL d   1      57.995  16.869  -6.743  0.00  0.00     0.057 C 
ATOM     17  S   UNL d   1      55.805  17.409  -8.385  0.00  0.00    -0.100 SA
ATOM     18  C   UNL d   1      54.223  17.428  -7.826  0.00  0.00    -0.020 A 
ATOM     19  C   UNL d   1      53.016  17.708  -8.656  0.00  0.00     0.056 C 
ATOM     20  C   UNL d   1      54.218  17.141  -6.469  0.00  0.00     0.024 A 
ENDBRANCH  12  14
ENDBRANCH   2  12
ENDBRANCH   1   2
BRANCH   1  21
ATOM     21  C   UNL d   1      52.611  16.310  -2.870  0.00  0.00    -0.038 A 
ATOM     22  C   UNL d   1      51.921  15.106  -2.563  0.00  0.00    -0.054 A 
ATOM     23  C   UNL d   1      52.549  13.901  -1.900  0.00  0.00     0.049 C 
ATOM     24  C   UNL d   1      50.554  14.997  -2.878  0.00  0.00     0.019 A 
ATOM     25  C   UNL d   1      49.831  16.046  -3.496  0.00  0.00    -0.025 A 
ATOM     26  C   UNL d   1      50.549  17.223  -3.797  0.00  0.00     0.013 A 
ATOM     27  C   UNL d   1      51.903  17.347  -3.492  0.00  0.00     0.010 A 
BRANCH  25  28
ATOM     28  C   UNL d   1      48.351  15.915  -3.811  0.00  0.00    -0.025 A 
ATOM     29  C   UNL d   1      47.806  14.711  -4.326  0.00  0.00     0.012 A 
ATOM     30  C   UNL d   1      46.445  14.594  -4.618  0.00  0.00     0.002 A 
ATOM     31  C   UNL d   1      45.587  15.669  -4.413  0.00  0.00     0.023 A 
ATOM     32  C   UNL d   1      46.086  16.870  -3.913  0.00  0.00     0.060 A 
ATOM     33  C   UNL d   1      47.448  16.992  -3.612  0.00  0.00     0.035 A 
BRANCH  32  34
ATOM     34  S   UNL d   1      44.982  18.263  -3.646  0.00  0.00     0.175 S 
ATOM     35  O   UNL d   1      45.378  19.361  -4.644  0.00  0.00    -0.223 OA
ATOM     36  O   UNL d   1      45.439  18.954  -2.351  0.00  0.00    -0.223 OA
BRANCH  34  37
ATOM     37  C   UNL d   1      43.164  18.150  -3.616  0.00  0.00     0.141 C 
ATOM     38  C   UNL d   1      42.648  17.273  -4.750  0.00  0.00     0.021 C 
ENDBRANCH  34  37
ENDBRANCH  32  34
ENDBRANCH  25  28
ENDBRANCH   1  21
TORSDOF 9
ENDMDL
MODEL 2
REMARK VINA RESULT:    -7.372      1.596      2.264
REMARK INTER + INTRA:         -13.404
REMARK INTER:                 -11.383
REMARK INTRA:                  -2.020
REMARK UNBOUND:                -2.152
REMARK  9 active torsions:
REMARK  status: ('A' for Active; 'I' for Inactive)
REMARK    1  A    between atoms: S_3  and  C_2 
REMARK    2  A    between atoms: C_4  and  S_3 
REMARK    3  A    between atoms: C_12  and  C_10 
REMARK    4  A    between atoms: C_19  and  C_17 
REMARK    5  A    between atoms: N_20  and  C_19 
REMARK    6  A    between atoms: S_21  and  N_20 
REMARK    7  A    between atoms: N_20  and  C_22 
REMARK    8  A    between atoms: S_21  and  C_23 
REMARK    9  A    between atoms: C_22  and  C_26 
ROOT
ATOM      1  C   UNL d   1      54.003  16.806  -2.602  0.00  0.00     0.147 C 
ENDROOT
BRANCH   1   2
ATOM      2  N   UNL d   1      54.636  17.551  -3.717  0.00  0.00    -0.192 NA
BRANCH   2   3
ATOM      3  S   UNL d   1      55.207  19.155  -3.121  0.00  0.00     0.263 S 
ATOM      4  O   UNL d   1      56.558  18.955  -2.421  0.00  0.00    -0.204 OA
ATOM      5  O   UNL d   1      54.297  19.523  -1.937  0.00  0.00    -0.204 OA
BRANCH   3   6
ATOM      6  C   UNL d   1      55.307  20.467  -4.332  0.00  0.00     0.183 A 
ATOM      7  C   UNL d   1      56.214  20.555  -5.362  0.00  0.00     0.136 A 
ATOM      8  N   UNL d   1      55.967  21.701  -6.016  0.00  0.00    -0.353 N 
ATOM      9  C   UNL d   1      56.689  22.212  -7.174  0.00  0.00     0.156 C 
ATOM     10  C   UNL d   1      54.926  22.280  -5.385  0.00  0.00     0.210 A 
ATOM     11  N   UNL d   1      54.496  21.543  -4.340  0.00  0.00    -0.229 NA
ENDBRANCH   3   6
ENDBRANCH   2   3
BRANCH   2  12
ATOM     12  C   UNL d   1      55.718  16.804  -4.422  0.00  0.00     0.104 C 
ATOM     13  C   UNL d   1      55.649  15.275  -4.212  0.00  0.00     0.032 C 
BRANCH  12  14
ATOM     14  C   UNL d   1      55.612  17.046  -5.919  0.00  0.00    -0.026 A 
ATOM     15  C   UNL d   1      56.683  17.071  -6.831  0.00  0.00    -0.013 A 
ATOM     16  C   UNL d   1      58.145  16.864  -6.572  0.00  0.00     0.057 C 
ATOM     17  S   UNL d   1      56.075  17.377  -8.371  0.00  0.00    -0.100 SA
ATOM     18  C   UNL d   1      54.465  17.480  -7.910  0.00  0.00    -0.020 A 
ATOM     19  C   UNL d   1      53.319  17.751  -8.826  0.00  0.00     0.056 C 
ATOM     20  C   UNL d   1      54.371  17.274  -6.542  0.00  0.00     0.024 A 
ENDBRANCH  12  14
ENDBRANCH   2  12
ENDBRANCH   1   2
BRANCH   1  21
ATOM     21  C   UNL d   1      52.545  16.494  -2.902  0.00  0.00    -0.038 A 
ATOM     22  C   UNL d   1      51.919  15.240  -2.665  0.00  0.00    -0.054 A 
ATOM     23  C   UNL d   1      52.615  14.025  -2.094  0.00  0.00     0.049 C 
ATOM     24  C   UNL d   1      50.553  15.087  -2.966  0.00  0.00     0.019 A 
ATOM     25  C   UNL d   1      49.770  16.138  -3.501  0.00  0.00    -0.025 A 
ATOM     26  C   UNL d   1      50.426  17.365  -3.734  0.00  0.00     0.013 A 
ATOM     27  C   UNL d   1      51.777  17.534  -3.443  0.00  0.00     0.010 A 
BRANCH  25  28
ATOM     28  C   UNL d   1      48.292  15.958  -3.802  0.00  0.00    -0.025 A 
ATOM     29  C   UNL d   1      47.778  14.725  -4.280  0.00  0.00     0.012 A 
ATOM     30  C   UNL d   1      46.419  14.562  -4.559  0.00  0.00     0.002 A 
ATOM     31  C   UNL d   1      45.532  15.618  -4.376  0.00  0.00     0.023 A 
ATOM     32  C   UNL d   1      46.000  16.846  -3.912  0.00  0.00     0.060 A 
ATOM     33  C   UNL d   1      47.360  17.013  -3.624  0.00  0.00     0.035 A 
BRANCH  32  34
ATOM     34  S   UNL d   1      44.859  18.213  -3.673  0.00  0.00     0.175 S 
ATOM     35  O   UNL d   1      45.230  19.303  -4.690  0.00  0.00    -0.223 OA
ATOM     36  O   UNL d   1      45.293  18.939  -2.390  0.00  0.00    -0.223 OA
BRANCH  34  37
ATOM     37  C   UNL d   1      43.044  18.054  -3.647  0.00  0.00     0.141 C 
ATOM     38  C   UNL d   1      42.620  16.679  -3.145  0.00  0.00     0.021 C 
ENDBRANCH  34  37
ENDBRANCH  32  34
ENDBRANCH  25  28
ENDBRANCH   1  21
TORSDOF 9
ENDMDL
MODEL 3
REMARK VINA RESULT:    -7.120      2.378      4.658
REMARK INTER + INTRA:         -13.019
REMARK INTER:                 -10.814
REMARK INTRA:                  -2.205
REMARK UNBOUND:                -2.152
REMARK  9 active torsions:
REMARK  status: ('A' for Active; 'I' for Inactive)
REMARK    1  A    between atoms: S_3  and  C_2 
REMARK    2  A    between atoms: C_4  and  S_3 
REMARK    3  A    between atoms: C_12  and  C_10 
REMARK    4  A    between atoms: C_19  and  C_17 
REMARK    5  A    between atoms: N_20  and  C_19 
REMARK    6  A    between atoms: S_21  and  N_20 
REMARK    7  A    between atoms: N_20  and  C_22 
REMARK    8  A    between atoms: S_21  and  C_23 
REMARK    9  A    between atoms: C_22  and  C_26 
ROOT
ATOM      1  C   UNL d   1      54.465  17.662  -3.888  0.00  0.00     0.147 C 
ENDROOT
BRANCH   1   2
ATOM      2  N   UNL d   1      55.262  16.414  -3.982  0.00  0.00    -0.192 NA
BRANCH   2   3
ATOM      3  S   UNL d   1      56.176  16.399  -5.538  0.00  0.00     0.263 S 
ATOM      4  O   UNL d   1      56.464  14.939  -5.911  0.00  0.00    -0.204 OA
ATOM      5  O   UNL d   1      57.585  16.920  -5.213  0.00  0.00    -0.204 OA
BRANCH   3   6
ATOM      6  C   UNL d   1      55.430  17.272  -6.909  0.00  0.00     0.183 A 
ATOM      7  C   UNL d   1      55.717  18.556  -7.307  0.00  0.00     0.136 A 
ATOM      8  N   UNL d   1      54.919  18.839  -8.350  0.00  0.00    -0.353 N 
ATOM      9  C   UNL d   1      54.872  20.093  -9.090  0.00  0.00     0.156 C 
ATOM     10  C   UNL d   1      54.175  17.737  -8.567  0.00  0.00     0.210 A 
ATOM     11  N   UNL d   1      54.466  16.751  -7.693  0.00  0.00    -0.229 NA
ENDBRANCH   3   6
ENDBRANCH   2   3
BRANCH   2  12
ATOM     12  C   UNL d   1      56.153  16.163  -2.812  0.00  0.00     0.104 C 
ATOM     13  C   UNL d   1      55.976  17.188  -1.671  0.00  0.00     0.032 C 
BRANCH  12  14
ATOM     14  C   UNL d   1      55.847  14.795  -2.224  0.00  0.00    -0.026 A 
ATOM     15  C   UNL d   1      56.792  13.869  -1.744  0.00  0.00    -0.013 A 
ATOM     16  C   UNL d   1      58.284  13.993  -1.685  0.00  0.00     0.057 C 
ATOM     17  S   UNL d   1      55.978  12.501  -1.195  0.00  0.00    -0.100 SA
ATOM     18  C   UNL d   1      54.435  13.056  -1.550  0.00  0.00    -0.020 A 
ATOM     19  C   UNL d   1      53.170  12.304  -1.310  0.00  0.00     0.056 C 
ATOM     20  C   UNL d   1      54.525  14.324  -2.104  0.00  0.00     0.024 A 
ENDBRANCH  12  14
ENDBRANCH   2  12
ENDBRANCH   1   2
BRANCH   1  21
ATOM     21  C   UNL d   1      52.975  17.365  -3.835  0.00  0.00    -0.038 A 
ATOM     22  C   UNL d   1      52.054  17.994  -2.955  0.00  0.00    -0.054 A 
ATOM     23  C   UNL d   1      52.422  19.041  -1.929  0.00  0.00     0.049 C 
ATOM     24  C   UNL d   1      50.692  17.645  -3.022  0.00  0.00     0.019 A 
ATOM     25  C   UNL d   1      50.198  16.684  -3.937  0.00  0.00    -0.025 A 
ATOM     26  C   UNL d   1      51.142  16.072  -4.788  0.00  0.00     0.013 A 
ATOM     27  C   UNL d   1      52.493  16.404  -4.735  0.00  0.00     0.010 A 
BRANCH  25  28
ATOM     28  C   UNL d   1      48.721  16.335  -4.006  0.00  0.00    -0.025 A 
ATOM     29  C   UNL d   1      48.284  15.008  -4.250  0.00  0.00     0.012 A 
ATOM     30  C   UNL d   1      46.925  14.689  -4.315  0.00  0.00     0.002 A 
ATOM     31  C   UNL d   1      45.962  15.678  -4.146  0.00  0.00     0.023 A 
ATOM     32  C   UNL d   1      46.352  16.995  -3.910  0.00  0.00     0.060 A 
ATOM     33  C   UNL d   1      47.713  17.320  -3.836  0.00  0.00     0.035 A 
BRANCH  32  34
ATOM     34  S   UNL d   1      45.113  18.278  -3.690  0.00  0.00     0.175 S 
ATOM     35  O   UNL d   1      45.461  19.422  -4.655  0.00  0.00    -0.223 OA
ATOM     36  O   UNL d   1      45.434  18.988  -2.366  0.00  0.00    -0.223 OA
BRANCH  34  37
ATOM     37  C   UNL d   1      43.314  18.000  -3.763  0.00  0.00     0.141 C 
ATOM     38  C   UNL d   1      42.916  16.760  -2.973  0.00  0.00     0.021 C 
ENDBRANCH  34  37
ENDBRANCH  32  34
ENDBRANCH  25  28
ENDBRANCH   1  21
TORSDOF 9
ENDMDL
MODEL 4
REMARK VINA RESULT:    -6.960      2.207      2.809
REMARK INTER + INTRA:         -12.774
REMARK INTER:                 -11.309
REMARK INTRA:                  -1.464
REMARK UNBOUND:                -2.152
REMARK  9 active torsions:
REMARK  status: ('A' for Active; 'I' for Inactive)
REMARK    1  A    between atoms: S_3  and  C_2 
REMARK    2  A    between atoms: C_4  and  S_3 
REMARK    3  A    between atoms: C_12  and  C_10 
REMARK    4  A    between atoms: C_19  and  C_17 
REMARK    5  A    between atoms: N_20  and  C_19 
REMARK    6  A    between atoms: S_21  and  N_20 
REMARK    7  A    between atoms: N_20  and  C_22 
REMARK    8  A    between atoms: S_21  and  C_23 
REMARK    9  A    between atoms: C_22  and  C_26 
ROOT
ATOM      1  C   UNL d   1      54.449  16.820  -4.105  0.00  0.00     0.147 C 
ENDROOT
BRANCH   1   2
ATOM      2  N   UNL d   1      54.848  18.236  -4.300  0.00  0.00    -0.192 NA
BRANCH   2   3
ATOM      3  S   UNL d   1      54.546  19.160  -2.780  0.00  0.00     0.263 S 
ATOM      4  O   UNL d   1      53.066  19.564  -2.749  0.00  0.00    -0.204 OA
ATOM      5  O   UNL d   1      55.235  20.522  -2.962  0.00  0.00    -0.204 OA
BRANCH   3   6
ATOM      6  C   UNL d   1      55.019  18.359  -1.253  0.00  0.00     0.183 A 
ATOM      7  C   UNL d   1      55.793  17.229  -1.134  0.00  0.00     0.136 A 
ATOM      8  N   UNL d   1      55.885  16.942   0.175  0.00  0.00    -0.353 N 
ATOM      9  C   UNL d   1      56.602  15.823   0.769  0.00  0.00     0.156 C 
ATOM     10  C   UNL d   1      55.178  17.891   0.820  0.00  0.00     0.210 A 
ATOM     11  N   UNL d   1      54.631  18.781  -0.034  0.00  0.00    -0.229 NA
ENDBRANCH   3   6
ENDBRANCH   2   3
BRANCH   2  12
ATOM     12  C   UNL d   1      56.243  18.420  -4.795  0.00  0.00     0.104 C 
ATOM     13  C   UNL d   1      56.849  17.145  -5.420  0.00  0.00     0.032 C 
BRANCH  12  14
ATOM     14  C   UNL d   1      56.262  19.490  -5.875  0.00  0.00    -0.026 A 
ATOM     15  C   UNL d   1      57.154  20.575  -5.950  0.00  0.00    -0.013 A 
ATOM     16  C   UNL d   1      58.276  20.937  -5.024  0.00  0.00     0.057 C 
ATOM     17  S   UNL d   1      56.785  21.486  -7.317  0.00  0.00    -0.100 SA
ATOM     18  C   UNL d   1      55.506  20.529  -7.830  0.00  0.00    -0.020 A 
ATOM     19  C   UNL d   1      54.676  20.773  -9.045  0.00  0.00     0.056 C 
ATOM     20  C   UNL d   1      55.343  19.475  -6.942  0.00  0.00     0.024 A 
ENDBRANCH  12  14
ENDBRANCH   2  12
ENDBRANCH   1   2
BRANCH   1  21
ATOM     21  C   UNL d   1      52.944  16.646  -4.231  0.00  0.00    -0.038 A 
ATOM     22  C   UNL d   1      52.226  16.662  -5.457  0.00  0.00    -0.054 A 
ATOM     23  C   UNL d   1      52.851  16.872  -6.818  0.00  0.00     0.049 C 
ATOM     24  C   UNL d   1      50.832  16.466  -5.440  0.00  0.00     0.019 A 
ATOM     25  C   UNL d   1      50.110  16.252  -4.241  0.00  0.00    -0.025 A 
ATOM     26  C   UNL d   1      50.853  16.253  -3.042  0.00  0.00     0.013 A 
ATOM     27  C   UNL d   1      52.232  16.447  -3.041  0.00  0.00     0.010 A 
BRANCH  25  28
ATOM     28  C   UNL d   1      48.608  16.023  -4.246  0.00  0.00    -0.025 A 
ATOM     29  C   UNL d   1      48.053  14.752  -4.541  0.00  0.00     0.012 A 
ATOM     30  C   UNL d   1      46.671  14.545  -4.547  0.00  0.00     0.002 A 
ATOM     31  C   UNL d   1      45.801  15.593  -4.265  0.00  0.00     0.023 A 
ATOM     32  C   UNL d   1      46.309  16.858  -3.975  0.00  0.00     0.060 A 
ATOM     33  C   UNL d   1      47.694  17.071  -3.961  0.00  0.00     0.035 A 
BRANCH  32  34
ATOM     34  S   UNL d   1      45.191  18.216  -3.609  0.00  0.00     0.175 S 
ATOM     35  O   UNL d   1      45.456  19.320  -4.645  0.00  0.00    -0.223 OA
ATOM     36  O   UNL d   1      45.745  18.930  -2.366  0.00  0.00    -0.223 OA
BRANCH  34  37
ATOM     37  C   UNL d   1      43.389  18.046  -3.408  0.00  0.00     0.141 C 
ATOM     38  C   UNL d   1      42.751  17.443  -4.653  0.00  0.00     0.021 C 
ENDBRANCH  34  37
ENDBRANCH  32  34
ENDBRANCH  25  28
ENDBRANCH   1  21
TORSDOF 9
ENDMDL
MODEL 5
REMARK VINA RESULT:    -6.781      2.088      4.772
REMARK INTER + INTRA:         -12.501
REMARK INTER:                 -11.210
REMARK INTRA:                  -1.291
REMARK UNBOUND:                -2.152
REMARK  9 active torsions:
REMARK  status: ('A' for Active; 'I' for Inactive)
REMARK    1  A    between atoms: S_3  and  C_2 
REMARK    2  A    between atoms: C_4  and  S_3 
REMARK    3  A    between atoms: C_12  and  C_10 
REMARK    4  A    between atoms: C_19  and  C_17 
REMARK    5  A    between atoms: N_20  and  C_19 
REMARK    6  A    between atoms: S_21  and  N_20 
REMARK    7  A    between atoms: N_20  and  C_22 
REMARK    8  A    between atoms: S_21  and  C_23 
REMARK    9  A    between atoms: C_22  and  C_26 
ROOT
ATOM      1  C   UNL d   1      54.598  16.804  -3.991  0.00  0.00     0.147 C 
ENDROOT
BRANCH   1   2
ATOM      2  N   UNL d   1      54.942  17.587  -2.779  0.00  0.00    -0.192 NA
BRANCH   2   3
ATOM      3  S   UNL d   1      56.028  16.610  -1.720  0.00  0.00     0.263 S 
ATOM      4  O   UNL d   1      55.745  16.990  -0.261  0.00  0.00    -0.204 OA
ATOM      5  O   UNL d   1      57.444  17.175  -1.918  0.00  0.00    -0.204 OA
BRANCH   3   6
ATOM      6  C   UNL d   1      55.970  14.836  -1.938  0.00  0.00     0.183 A 
ATOM      7  C   UNL d   1      54.855  14.039  -1.821  0.00  0.00     0.136 A 
ATOM      8  N   UNL d   1      55.246  12.771  -2.030  0.00  0.00    -0.353 N 
ATOM      9  C   UNL d   1      54.399  11.586  -1.995  0.00  0.00     0.156 C 
ATOM     10  C   UNL d   1      56.571  12.819  -2.272  0.00  0.00     0.210 A 
ATOM     11  N   UNL d   1      57.048  14.080  -2.222  0.00  0.00    -0.229 NA
ENDBRANCH   3   6
ENDBRANCH   2   3
BRANCH   2  12
ATOM     12  C   UNL d   1      55.509  18.938  -3.060  0.00  0.00     0.104 C 
ATOM     13  C   UNL d   1      55.551  19.289  -4.563  0.00  0.00     0.032 C 
BRANCH  12  14
ATOM     14  C   UNL d   1      54.653  19.998  -2.386  0.00  0.00    -0.026 A 
ATOM     15  C   UNL d   1      54.550  21.348  -2.772  0.00  0.00    -0.013 A 
ATOM     16  C   UNL d   1      55.225  22.056  -3.907  0.00  0.00     0.057 C 
ATOM     17  S   UNL d   1      53.488  22.130  -1.726  0.00  0.00    -0.100 SA
ATOM     18  C   UNL d   1      53.145  20.786  -0.781  0.00  0.00    -0.020 A 
ATOM     19  C   UNL d   1      52.226  20.767   0.394  0.00  0.00     0.056 C 
ATOM     20  C   UNL d   1      53.853  19.697  -1.267  0.00  0.00     0.024 A 
ENDBRANCH  12  14
ENDBRANCH   2  12
ENDBRANCH   1   2
BRANCH   1  21
ATOM     21  C   UNL d   1      53.093  16.635  -4.132  0.00  0.00    -0.038 A 
ATOM     22  C   UNL d   1      52.390  16.630  -5.367  0.00  0.00    -0.054 A 
ATOM     23  C   UNL d   1      53.034  16.808  -6.724  0.00  0.00     0.049 C 
ATOM     24  C   UNL d   1      50.996  16.442  -5.364  0.00  0.00     0.019 A 
ATOM     25  C   UNL d   1      50.257  16.257  -4.170  0.00  0.00    -0.025 A 
ATOM     26  C   UNL d   1      50.985  16.279  -2.962  0.00  0.00     0.013 A 
ATOM     27  C   UNL d   1      52.365  16.465  -2.947  0.00  0.00     0.010 A 
BRANCH  25  28
ATOM     28  C   UNL d   1      48.754  16.037  -4.189  0.00  0.00    -0.025 A 
ATOM     29  C   UNL d   1      48.194  14.769  -4.491  0.00  0.00     0.012 A 
ATOM     30  C   UNL d   1      46.812  14.570  -4.510  0.00  0.00     0.002 A 
ATOM     31  C   UNL d   1      45.945  15.623  -4.235  0.00  0.00     0.023 A 
ATOM     32  C   UNL d   1      46.458  16.885  -3.939  0.00  0.00     0.060 A 
ATOM     33  C   UNL d   1      47.843  17.089  -3.911  0.00  0.00     0.035 A 
BRANCH  32  34
ATOM     34  S   UNL d   1      45.344  18.249  -3.582  0.00  0.00     0.175 S 
ATOM     35  O   UNL d   1      45.672  19.379  -4.570  0.00  0.00    -0.223 OA
ATOM     36  O   UNL d   1      45.851  18.916  -2.294  0.00  0.00    -0.223 OA
BRANCH  34  37
ATOM     37  C   UNL d   1      43.532  18.102  -3.469  0.00  0.00     0.141 C 
ATOM     38  C   UNL d   1      42.975  17.263  -4.612  0.00  0.00     0.021 C 
ENDBRANCH  34  37
ENDBRANCH  32  34
ENDBRANCH  25  28
ENDBRANCH   1  21
TORSDOF 9
ENDMDL
MODEL 6
REMARK VINA RESULT:    -6.721      2.323      4.641
REMARK INTER + INTRA:         -12.409
REMARK INTER:                 -10.930
REMARK INTRA:                  -1.480
REMARK UNBOUND:                -2.152
REMARK  9 active torsions:
REMARK  status: ('A' for Active; 'I' for Inactive)
REMARK    1  A    between atoms: S_3  and  C_2 
REMARK    2  A    between atoms: C_4  and  S_3 
REMARK    3  A    between atoms: C_12  and  C_10 
REMARK    4  A    between atoms: C_19  and  C_17 
REMARK    5  A    between atoms: N_20  and  C_19 
REMARK    6  A    between atoms: S_21  and  N_20 
REMARK    7  A    between atoms: N_20  and  C_22 
REMARK    8  A    between atoms: S_21  and  C_23 
REMARK    9  A    between atoms: C_22  and  C_26 
ROOT
ATOM      1  C   UNL d   1      54.677  16.863  -3.991  0.00  0.00     0.147 C 
ENDROOT
BRANCH   1   2
ATOM      2  N   UNL d   1      55.010  17.678  -2.797  0.00  0.00    -0.192 NA
BRANCH   2   3
ATOM      3  S   UNL d   1      56.133  16.753  -1.731  0.00  0.00     0.263 S 
ATOM      4  O   UNL d   1      55.868  15.256  -1.937  0.00  0.00    -0.204 OA
ATOM      5  O   UNL d   1      55.631  16.961  -0.293  0.00  0.00    -0.204 OA
BRANCH   3   6
ATOM      6  C   UNL d   1      57.875  17.119  -1.900  0.00  0.00     0.183 A 
ATOM      7  C   UNL d   1      58.671  16.802  -2.976  0.00  0.00     0.136 A 
ATOM      8  N   UNL d   1      59.914  17.224  -2.692  0.00  0.00    -0.353 N 
ATOM      9  C   UNL d   1      61.090  17.092  -3.541  0.00  0.00     0.156 C 
ATOM     10  C   UNL d   1      59.853  17.785  -1.468  0.00  0.00     0.210 A 
ATOM     11  N   UNL d   1      58.607  17.736  -0.952  0.00  0.00    -0.229 NA
ENDBRANCH   3   6
ENDBRANCH   2   3
BRANCH   2  12
ATOM     12  C   UNL d   1      55.534  19.040  -3.107  0.00  0.00     0.104 C 
ATOM     13  C   UNL d   1      55.553  19.363  -4.617  0.00  0.00     0.032 C 
BRANCH  12  14
ATOM     14  C   UNL d   1      54.653  20.087  -2.446  0.00  0.00    -0.026 A 
ATOM     15  C   UNL d   1      54.546  21.438  -2.824  0.00  0.00    -0.013 A 
ATOM     16  C   UNL d   1      55.241  22.161  -3.939  0.00  0.00     0.057 C 
ATOM     17  S   UNL d   1      53.453  22.203  -1.797  0.00  0.00    -0.100 SA
ATOM     18  C   UNL d   1      53.101  20.849  -0.870  0.00  0.00    -0.020 A 
ATOM     19  C   UNL d   1      52.155  20.812   0.283  0.00  0.00     0.056 C 
ATOM     20  C   UNL d   1      53.830  19.770  -1.348  0.00  0.00     0.024 A 
ENDBRANCH  12  14
ENDBRANCH   2  12
ENDBRANCH   1   2
BRANCH   1  21
ATOM     21  C   UNL d   1      53.175  16.673  -4.131  0.00  0.00    -0.038 A 
ATOM     22  C   UNL d   1      52.473  16.647  -5.366  0.00  0.00    -0.054 A 
ATOM     23  C   UNL d   1      53.115  16.821  -6.724  0.00  0.00     0.049 C 
ATOM     24  C   UNL d   1      51.081  16.440  -5.362  0.00  0.00     0.019 A 
ATOM     25  C   UNL d   1      50.344  16.257  -4.166  0.00  0.00    -0.025 A 
ATOM     26  C   UNL d   1      51.071  16.299  -2.958  0.00  0.00     0.013 A 
ATOM     27  C   UNL d   1      52.449  16.504  -2.945  0.00  0.00     0.010 A 
BRANCH  25  28
ATOM     28  C   UNL d   1      48.844  16.017  -4.184  0.00  0.00    -0.025 A 
ATOM     29  C   UNL d   1      48.300  14.753  -4.526  0.00  0.00     0.012 A 
ATOM     30  C   UNL d   1      46.920  14.535  -4.544  0.00  0.00     0.002 A 
ATOM     31  C   UNL d   1      46.041  15.566  -4.227  0.00  0.00     0.023 A 
ATOM     32  C   UNL d   1      46.538  16.823  -3.890  0.00  0.00     0.060 A 
ATOM     33  C   UNL d   1      47.921  17.046  -3.864  0.00  0.00     0.035 A 
BRANCH  32  34
ATOM     34  S   UNL d   1      45.408  18.159  -3.480  0.00  0.00     0.175 S 
ATOM     35  O   UNL d   1      45.588  19.254  -4.541  0.00  0.00    -0.223 OA
ATOM     36  O   UNL d   1      46.012  18.902  -2.278  0.00  0.00    -0.223 OA
BRANCH  34  37
ATOM     37  C   UNL d   1      43.624  17.947  -3.177  0.00  0.00     0.141 C 
ATOM     38  C   UNL d   1      42.824  18.122  -4.462  0.00  0.00     0.021 C 
ENDBRANCH  34  37
ENDBRANCH  32  34
ENDBRANCH  25  28
ENDBRANCH   1  21
TORSDOF 9
ENDMDL
MODEL 7
REMARK VINA RESULT:    -6.442      2.162      4.665
REMARK INTER + INTRA:         -11.983
REMARK INTER:                  -9.820
REMARK INTRA:                  -2.164
REMARK UNBOUND:                -2.152
REMARK  9 active torsions:
REMARK  status: ('A' for Active; 'I' for Inactive)
REMARK    1  A    between atoms: S_3  and  C_2 
REMARK    2  A    between atoms: C_4  and  S_3 
REMARK    3  A    between atoms: C_12  and  C_10 
REMARK    4  A    between atoms: C_19  and  C_17 
REMARK    5  A    between atoms: N_20  and  C_19 
REMARK    6  A    between atoms: S_21  and  N_20 
REMARK    7  A    between atoms: N_20  and  C_22 
REMARK    8  A    between atoms: S_21  and  C_23 
REMARK    9  A    between atoms: C_22  and  C_26 
ROOT
ATOM      1  C   UNL d   1      54.472  18.161  -3.028  0.00  0.00     0.147 C 
ENDROOT
BRANCH   1   2
ATOM      2  N   UNL d   1      55.336  17.254  -3.823  0.00  0.00    -0.192 NA
BRANCH   2   3
ATOM      3  S   UNL d   1      55.997  18.147  -5.244  0.00  0.00     0.263 S 
ATOM      4  O   UNL d   1      56.190  19.615  -4.842  0.00  0.00    -0.204 OA
ATOM      5  O   UNL d   1      54.848  18.253  -6.260  0.00  0.00    -0.204 OA
BRANCH   3   6
ATOM      6  C   UNL d   1      57.490  17.488  -5.976  0.00  0.00     0.183 A 
ATOM      7  C   UNL d   1      58.772  17.676  -5.517  0.00  0.00     0.136 A 
ATOM      8  N   UNL d   1      59.598  17.042  -6.365  0.00  0.00    -0.353 N 
ATOM      9  C   UNL d   1      61.051  16.980  -6.276  0.00  0.00     0.156 C 
ATOM     10  C   UNL d   1      58.815  16.484  -7.309  0.00  0.00     0.210 A 
ATOM     11  N   UNL d   1      57.508  16.741  -7.098  0.00  0.00    -0.229 NA
ENDBRANCH   3   6
ENDBRANCH   2   3
BRANCH   2  12
ATOM     12  C   UNL d   1      56.413  16.584  -3.038  0.00  0.00     0.104 C 
ATOM     13  C   UNL d   1      56.565  17.136  -1.604  0.00  0.00     0.032 C 
BRANCH  12  14
ATOM     14  C   UNL d   1      56.099  15.102  -2.906  0.00  0.00    -0.026 A 
ATOM     15  C   UNL d   1      56.765  14.053  -3.567  0.00  0.00    -0.013 A 
ATOM     16  C   UNL d   1      57.915  14.125  -4.526  0.00  0.00     0.057 C 
ATOM     17  S   UNL d   1      56.064  12.594  -3.107  0.00  0.00    -0.100 SA
ATOM     18  C   UNL d   1      54.921  13.260  -2.076  0.00  0.00    -0.020 A 
ATOM     19  C   UNL d   1      53.910  12.493  -1.293  0.00  0.00     0.056 C 
ATOM     20  C   UNL d   1      55.067  14.640  -2.068  0.00  0.00     0.024 A 
ENDBRANCH  12  14
ENDBRANCH   2  12
ENDBRANCH   1   2
BRANCH   1  21
ATOM     21  C   UNL d   1      53.005  17.782  -3.156  0.00  0.00    -0.038 A 
ATOM     22  C   UNL d   1      51.929  18.489  -2.555  0.00  0.00    -0.054 A 
ATOM     23  C   UNL d   1      52.086  19.715  -1.684  0.00  0.00     0.049 C 
ATOM     24  C   UNL d   1      50.610  18.048  -2.770  0.00  0.00     0.019 A 
ATOM     25  C   UNL d   1      50.309  16.917  -3.567  0.00  0.00    -0.025 A 
ATOM     26  C   UNL d   1      51.401  16.232  -4.140  0.00  0.00     0.013 A 
ATOM     27  C   UNL d   1      52.712  16.655  -3.936  0.00  0.00     0.010 A 
BRANCH  25  28
ATOM     28  C   UNL d   1      48.877  16.467  -3.802  0.00  0.00    -0.025 A 
ATOM     29  C   UNL d   1      48.578  15.166  -4.284  0.00  0.00     0.012 A 
ATOM     30  C   UNL d   1      47.261  14.756  -4.502  0.00  0.00     0.002 A 
ATOM     31  C   UNL d   1      46.203  15.624  -4.253  0.00  0.00     0.023 A 
ATOM     32  C   UNL d   1      46.457  16.911  -3.783  0.00  0.00     0.060 A 
ATOM     33  C   UNL d   1      47.775  17.326  -3.556  0.00  0.00     0.035 A 
BRANCH  32  34
ATOM     34  S   UNL d   1      45.095  18.037  -3.458  0.00  0.00     0.175 S 
ATOM     35  O   UNL d   1      45.133  19.127  -4.540  0.00  0.00    -0.223 OA
ATOM     36  O   UNL d   1      45.502  18.896  -2.252  0.00  0.00    -0.223 OA
BRANCH  34  37
ATOM     37  C   UNL d   1      43.361  17.524  -3.229  0.00  0.00     0.141 C 
ATOM     38  C   UNL d   1      42.531  17.820  -4.472  0.00  0.00     0.021 C 
ENDBRANCH  34  37
ENDBRANCH  32  34
ENDBRANCH  25  28
ENDBRANCH   1  21
TORSDOF 9
ENDMDL
MODEL 8
REMARK VINA RESULT:    -6.404      2.876      4.133
REMARK INTER + INTRA:         -11.925
REMARK INTER:                  -9.797
REMARK INTRA:                  -2.129
REMARK UNBOUND:                -2.152
REMARK  9 active torsions:
REMARK  status: ('A' for Active; 'I' for Inactive)
REMARK    1  A    between atoms: S_3  and  C_2 
REMARK    2  A    between atoms: C_4  and  S_3 
REMARK    3  A    between atoms: C_12  and  C_10 
REMARK    4  A    between atoms: C_19  and  C_17 
REMARK    5  A    between atoms: N_20  and  C_19 
REMARK    6  A    between atoms: S_21  and  N_20 
REMARK    7  A    between atoms: N_20  and  C_22 
REMARK    8  A    between atoms: S_21  and  C_23 
REMARK    9  A    between atoms: C_22  and  C_26 
ROOT
ATOM      1  C   UNL d   1      56.431  17.521  -4.976  0.00  0.00     0.147 C 
ENDROOT
BRANCH   1   2
ATOM      2  N   UNL d   1      56.540  18.950  -5.359  0.00  0.00    -0.192 NA
BRANCH   2   3
ATOM      3  S   UNL d   1      57.059  19.918  -3.928  0.00  0.00     0.263 S 
ATOM      4  O   UNL d   1      55.807  20.522  -3.278  0.00  0.00    -0.204 OA
ATOM      5  O   UNL d   1      57.753  21.171  -4.485  0.00  0.00    -0.204 OA
BRANCH   3   6
ATOM      6  C   UNL d   1      58.061  19.071  -2.713  0.00  0.00     0.183 A 
ATOM      7  C   UNL d   1      59.432  18.963  -2.724  0.00  0.00     0.136 A 
ATOM      8  N   UNL d   1      59.783  18.226  -1.657  0.00  0.00    -0.353 N 
ATOM      9  C   UNL d   1      61.136  17.848  -1.272  0.00  0.00     0.156 C 
ATOM     10  C   UNL d   1      58.637  17.908  -1.023  0.00  0.00     0.210 A 
ATOM     11  N   UNL d   1      57.556  18.414  -1.651  0.00  0.00    -0.229 NA
ENDBRANCH   3   6
ENDBRANCH   2   3
BRANCH   2  12
ATOM     12  C   UNL d   1      57.407  19.205  -6.546  0.00  0.00     0.104 C 
ATOM     13  C   UNL d   1      57.747  17.929  -7.346  0.00  0.00     0.032 C 
BRANCH  12  14
ATOM     14  C   UNL d   1      56.694  20.146  -7.504  0.00  0.00    -0.026 A 
ATOM     15  C   UNL d   1      57.287  21.199  -8.225  0.00  0.00    -0.013 A 
ATOM     16  C   UNL d   1      58.720  21.640  -8.239  0.00  0.00     0.057 C 
ATOM     17  S   UNL d   1      56.101  21.957  -9.148  0.00  0.00    -0.100 SA
ATOM     18  C   UNL d   1      54.834  20.974  -8.655  0.00  0.00    -0.020 A 
ATOM     19  C   UNL d   1      53.418  21.097  -9.107  0.00  0.00     0.056 C 
ATOM     20  C   UNL d   1      55.314  20.030  -7.760  0.00  0.00     0.024 A 
ENDBRANCH  12  14
ENDBRANCH   2  12
ENDBRANCH   1   2
BRANCH   1  21
ATOM     21  C   UNL d   1      55.004  17.156  -4.596  0.00  0.00    -0.038 A 
ATOM     22  C   UNL d   1      53.990  16.780  -5.517  0.00  0.00    -0.054 A 
ATOM     23  C   UNL d   1      54.176  16.701  -7.016  0.00  0.00     0.049 C 
ATOM     24  C   UNL d   1      52.712  16.443  -5.034  0.00  0.00     0.019 A 
ATOM     25  C   UNL d   1      52.392  16.466  -3.655  0.00  0.00    -0.025 A 
ATOM     26  C   UNL d   1      53.419  16.855  -2.769  0.00  0.00     0.013 A 
ATOM     27  C   UNL d   1      54.689  17.192  -3.231  0.00  0.00     0.010 A 
BRANCH  25  28
ATOM     28  C   UNL d   1      51.011  16.081  -3.151  0.00  0.00    -0.025 A 
ATOM     29  C   UNL d   1      50.801  14.901  -2.392  0.00  0.00     0.012 A 
ATOM     30  C   UNL d   1      49.530  14.548  -1.932  0.00  0.00     0.002 A 
ATOM     31  C   UNL d   1      48.431  15.352  -2.216  0.00  0.00     0.023 A 
ATOM     32  C   UNL d   1      48.597  16.517  -2.963  0.00  0.00     0.060 A 
ATOM     33  C   UNL d   1      49.869  16.880  -3.421  0.00  0.00     0.035 A 
BRANCH  32  34
ATOM     34  S   UNL d   1      47.181  17.560  -3.332  0.00  0.00     0.175 S 
ATOM     35  O   UNL d   1      47.584  18.487  -4.489  0.00  0.00    -0.223 OA
ATOM     36  O   UNL d   1      47.095  18.611  -2.214  0.00  0.00    -0.223 OA
BRANCH  34  37
ATOM     37  C   UNL d   1      45.499  16.942  -3.659  0.00  0.00     0.141 C 
ATOM     38  C   UNL d   1      45.532  15.528  -4.224  0.00  0.00     0.021 C 
ENDBRANCH  34  37
ENDBRANCH  32  34
ENDBRANCH  25  28
ENDBRANCH   1  21
TORSDOF 9
ENDMDL
MODEL 9
REMARK VINA RESULT:    -6.161      2.955      4.435
REMARK INTER + INTRA:         -11.555
REMARK INTER:                  -9.402
REMARK INTRA:                  -2.152
REMARK UNBOUND:                -2.152
REMARK  9 active torsions:
REMARK  status: ('A' for Active; 'I' for Inactive)
REMARK    1  A    between atoms: S_3  and  C_2 
REMARK    2  A    between atoms: C_4  and  S_3 
REMARK    3  A    between atoms: C_12  and  C_10 
REMARK    4  A    between atoms: C_19  and  C_17 
REMARK    5  A    between atoms: N_20  and  C_19 
REMARK    6  A    between atoms: S_21  and  N_20 
REMARK    7  A    between atoms: N_20  and  C_22 
REMARK    8  A    between atoms: S_21  and  C_23 
REMARK    9  A    between atoms: C_22  and  C_26 
ROOT
ATOM      1  C   UNL d   1      56.807  17.244  -5.751  0.00  0.00     0.147 C 
ENDROOT
BRANCH   1   2
ATOM      2  N   UNL d   1      57.439  18.399  -5.069  0.00  0.00    -0.192 NA
BRANCH   2   3
ATOM      3  S   UNL d   1      58.865  17.832  -4.121  0.00  0.00     0.263 S 
ATOM      4  O   UNL d   1      60.010  18.832  -4.330  0.00  0.00    -0.204 OA
ATOM      5  O   UNL d   1      59.401  16.590  -4.852  0.00  0.00    -0.204 OA
BRANCH   3   6
ATOM      6  C   UNL d   1      58.595  17.529  -2.379  0.00  0.00     0.183 A 
ATOM      7  C   UNL d   1      57.611  18.090  -1.600  0.00  0.00     0.136 A 
ATOM      8  N   UNL d   1      57.776  17.625  -0.351  0.00  0.00    -0.353 N 
ATOM      9  C   UNL d   1      56.965  17.958   0.812  0.00  0.00     0.156 C 
ATOM     10  C   UNL d   1      58.839  16.799  -0.392  0.00  0.00     0.210 A 
ATOM     11  N   UNL d   1      59.368  16.718  -1.631  0.00  0.00    -0.229 NA
ENDBRANCH   3   6
ENDBRANCH   2   3
BRANCH   2  12
ATOM     12  C   UNL d   1      57.789  19.533  -5.974  0.00  0.00     0.104 C 
ATOM     13  C   UNL d   1      58.055  19.099  -7.431  0.00  0.00     0.032 C 
BRANCH  12  14
ATOM     14  C   UNL d   1      56.638  20.525  -6.015  0.00  0.00    -0.026 A 
ATOM     15  C   UNL d   1      56.232  21.367  -4.963  0.00  0.00    -0.013 A 
ATOM     16  C   UNL d   1      56.812  21.501  -3.587  0.00  0.00     0.057 C 
ATOM     17  S   UNL d   1      54.916  22.281  -5.479  0.00  0.00    -0.100 SA
ATOM     18  C   UNL d   1      54.843  21.634  -7.025  0.00  0.00    -0.020 A 
ATOM     19  C   UNL d   1      53.854  22.013  -8.075  0.00  0.00     0.056 C 
ATOM     20  C   UNL d   1      55.850  20.690  -7.170  0.00  0.00     0.024 A 
ENDBRANCH  12  14
ENDBRANCH   2  12
ENDBRANCH   1   2
BRANCH   1  21
ATOM     21  C   UNL d   1      55.405  16.988  -5.223  0.00  0.00    -0.038 A 
ATOM     22  C   UNL d   1      54.242  16.869  -6.032  0.00  0.00    -0.054 A 
ATOM     23  C   UNL d   1      54.226  16.996  -7.538  0.00  0.00     0.049 C 
ATOM     24  C   UNL d   1      53.002  16.608  -5.420  0.00  0.00     0.019 A 
ATOM     25  C   UNL d   1      52.863  16.459  -4.019  0.00  0.00    -0.025 A 
ATOM     26  C   UNL d   1      54.036  16.594  -3.245  0.00  0.00     0.013 A 
ATOM     27  C   UNL d   1      55.270  16.853  -3.835  0.00  0.00     0.010 A 
BRANCH  25  28
ATOM     28  C   UNL d   1      51.519  16.159  -3.378  0.00  0.00    -0.025 A 
ATOM     29  C   UNL d   1      51.337  15.040  -2.525  0.00  0.00     0.012 A 
ATOM     30  C   UNL d   1      50.099  14.765  -1.939  0.00  0.00     0.002 A 
ATOM     31  C   UNL d   1      49.005  15.588  -2.187  0.00  0.00     0.023 A 
ATOM     32  C   UNL d   1      49.143  16.694  -3.024  0.00  0.00     0.060 A 
ATOM     33  C   UNL d   1      50.383  16.979  -3.609  0.00  0.00     0.035 A 
BRANCH  32  34
ATOM     34  S   UNL d   1      47.734  17.761  -3.348  0.00  0.00     0.175 S 
ATOM     35  O   UNL d   1      48.174  18.794  -4.396  0.00  0.00    -0.223 OA
ATOM     36  O   UNL d   1      47.598  18.701  -2.141  0.00  0.00    -0.223 OA
BRANCH  34  37
ATOM     37  C   UNL d   1      46.070  17.169  -3.796  0.00  0.00     0.141 C 
ATOM     38  C   UNL d   1      46.075  15.670  -4.069  0.00  0.00     0.021 C 
ENDBRANCH  34  37
ENDBRANCH  32  34
ENDBRANCH  25  28
ENDBRANCH   1  21
TORSDOF 9
ENDMDL
