REMARK  9 active torsions:
REMARK  status: ('A' for Active; 'I' for Inactive)
REMARK    1  A    between atoms: S_3  and  C_2 
REMARK    2  A    between atoms: C_4  and  S_3 
REMARK    3  A    between atoms: C_12  and  C_10 
REMARK    4  A    between atoms: C_19  and  C_17 
REMARK    5  A    between atoms: N_20  and  C_19 
REMARK    6  A    between atoms: S_21  and  N_20 
REMARK    7  A    between atoms: N_20  and  C_22 
REMARK    8  A    between atoms: S_21  and  C_23 
REMARK    9  A    between atoms: C_22  and  C_26 
ROOT
ATOM      1  C   UNL d   1       5.344   8.787   1.013  0.00  0.00     0.147 C 
ENDROOT
BRANCH   1   2
ATOM      2  N   UNL d   1       6.489   9.236   1.842  0.00  0.00    -0.192 NA
BRANCH   2   3
ATOM      3  S   UNL d   1       7.664   7.880   2.030  0.00  0.00     0.263 S 
ATOM      4  O   UNL d   1       9.052   8.480   2.290  0.00  0.00    -0.204 OA
ATOM      5  O   UNL d   1       7.847   7.272   0.630  0.00  0.00    -0.204 OA
BRANCH   3   6
ATOM      6  C   UNL d   1       7.265   6.644   3.259  0.00  0.00     0.183 A 
ATOM      7  C   UNL d   1       7.038   5.308   3.024  0.00  0.00     0.136 A 
ATOM      8  N   UNL d   1       6.742   4.739   4.204  0.00  0.00    -0.353 N 
ATOM      9  C   UNL d   1       6.421   3.337   4.434  0.00  0.00     0.156 C 
ATOM     10  C   UNL d   1       6.797   5.723   5.123  0.00  0.00     0.210 A 
ATOM     11  N   UNL d   1       7.117   6.912   4.571  0.00  0.00    -0.229 NA
ENDBRANCH   3   6
ENDBRANCH   2   3
BRANCH   2  12
ATOM     12  C   UNL d   1       7.151  10.481   1.355  0.00  0.00     0.104 C 
ATOM     13  C   UNL d   1       6.156  11.584   0.933  0.00  0.00     0.032 C 
BRANCH  12  14
ATOM     14  C   UNL d   1       8.011  11.067   2.463  0.00  0.00    -0.026 A 
ATOM     15  C   UNL d   1       9.383  11.368   2.375  0.00  0.00    -0.013 A 
ATOM     16  C   UNL d   1      10.310  11.202   1.209  0.00  0.00     0.057 C 
ATOM     17  S   UNL d   1       9.895  11.993   3.852  0.00  0.00    -0.100 SA
ATOM     18  C   UNL d   1       8.404  11.895   4.615  0.00  0.00    -0.020 A 
ATOM     19  C   UNL d   1       8.124  12.303   6.022  0.00  0.00     0.056 C 
ATOM     20  C   UNL d   1       7.474  11.373   3.728  0.00  0.00     0.024 A 
ENDBRANCH  12  14
ENDBRANCH   2  12
ENDBRANCH   1   2
BRANCH   1  21
ATOM     21  C   UNL d   1       4.652   7.582   1.630  0.00  0.00    -0.038 A 
ATOM     22  C   UNL d   1       4.495   6.322   0.992  0.00  0.00    -0.054 A 
ATOM     23  C   UNL d   1       4.980   5.998  -0.403  0.00  0.00     0.049 C 
ATOM     24  C   UNL d   1       3.853   5.277   1.682  0.00  0.00     0.019 A 
ATOM     25  C   UNL d   1       3.351   5.431   2.997  0.00  0.00    -0.025 A 
ATOM     26  C   UNL d   1       3.514   6.698   3.596  0.00  0.00     0.013 A 
ATOM     27  C   UNL d   1       4.146   7.743   2.927  0.00  0.00     0.010 A 
BRANCH  25  28
ATOM     28  C   UNL d   1       2.677   4.285   3.732  0.00  0.00    -0.025 A 
ATOM     29  C   UNL d   1       2.107   4.463   5.019  0.00  0.00     0.012 A 
ATOM     30  C   UNL d   1       1.490   3.407   5.694  0.00  0.00     0.002 A 
ATOM     31  C   UNL d   1       1.425   2.144   5.115  0.00  0.00     0.023 A 
ATOM     32  C   UNL d   1       1.978   1.929   3.854  0.00  0.00     0.060 A 
ATOM     33  C   UNL d   1       2.592   2.985   3.169  0.00  0.00     0.035 A 
BRANCH  32  34
ATOM     34  S   UNL d   1       1.897   0.300   3.100  0.00  0.00     0.175 S 
ATOM     35  O   UNL d   1       1.966  -0.734   4.234  0.00  0.00    -0.223 OA
ATOM     36  O   UNL d   1       3.269   0.033   2.462  0.00  0.00    -0.223 OA
BRANCH  34  37
ATOM     37  C   UNL d   1       0.612  -0.232   1.923  0.00  0.00     0.141 C 
ATOM     38  C   UNL d   1       0.857  -1.659   1.449  0.00  0.00     0.021 C 
ENDBRANCH  34  37
ENDBRANCH  32  34
ENDBRANCH  25  28
ENDBRANCH   1  21
TORSDOF 9
