/content/4EXS_VS/DOCKING/CLC-0000181/CLC-0000181_output.pdbqt
 OpenBabel03062504413D

 38 41  0  0  1  0  0  0  0  0999 V2000
   54.0770   16.5730   -2.5650 C   0  0  0  0  0  2  0  0  0  0  0  0
   54.7200   17.3630   -3.6420 N   0  0  0  0  0  0  0  0  0  0  0  0
   55.4470   18.8580   -2.9410 S   0  0  0  0  0  0  0  0  0  0  0  0
   56.1510   19.6240   -4.0680 O   0  0  0  0  0  0  0  0  0  0  0  0
   56.6410   18.3970   -2.0880 O   0  0  0  0  0  0  0  0  0  0  0  0
   54.3420   19.9320   -2.0350 C   0  0  0  0  0  0  0  0  0  0  0  0
   53.9340   19.7660   -0.7320 C   0  0  0  0  0  3  0  0  0  0  0  0
   53.0870   20.7690   -0.4470 N   0  0  0  0  0  0  0  0  0  0  0  0
   52.4000   20.9910    0.8180 C   0  0  0  0  0  1  0  0  0  0  0  0
   52.9990   21.5190   -1.5630 C   0  0  0  0  0  3  0  0  0  0  0  0
   53.7620   21.0280   -2.5620 N   0  0  0  0  0  0  0  0  0  0  0  0
   55.7050   16.5990   -4.4620 C   0  0  1  0  0  3  0  0  0  0  0  0
   55.5690   15.0670   -4.3200 C   0  0  0  0  0  1  0  0  0  0  0  0
   55.5020   16.9230   -5.9340 C   0  0  0  0  0  0  0  0  0  0  0  0
   56.5150   17.0380   -6.9040 C   0  0  0  0  0  0  0  0  0  0  0  0
   57.9950   16.8690   -6.7430 C   0  0  0  0  0  1  0  0  0  0  0  0
   55.8050   17.4090   -8.3850 S   0  0  0  0  0  0  0  0  0  0  0  0
   54.2230   17.4280   -7.8260 C   0  0  0  0  0  0  0  0  0  0  0  0
   53.0160   17.7080   -8.6560 C   0  0  0  0  0  1  0  0  0  0  0  0
   54.2180   17.1410   -6.4690 C   0  0  0  0  0  3  0  0  0  0  0  0
   52.6110   16.3100   -2.8700 C   0  0  0  0  0  0  0  0  0  0  0  0
   51.9210   15.1060   -2.5630 C   0  0  0  0  0  0  0  0  0  0  0  0
   52.5490   13.9010   -1.9000 C   0  0  0  0  0  1  0  0  0  0  0  0
   50.5540   14.9970   -2.8780 C   0  0  0  0  0  3  0  0  0  0  0  0
   49.8310   16.0460   -3.4960 C   0  0  0  0  0  0  0  0  0  0  0  0
   50.5490   17.2230   -3.7970 C   0  0  0  0  0  3  0  0  0  0  0  0
   51.9030   17.3470   -3.4920 C   0  0  0  0  0  3  0  0  0  0  0  0
   48.3510   15.9150   -3.8110 C   0  0  0  0  0  0  0  0  0  0  0  0
   47.8060   14.7110   -4.3260 C   0  0  0  0  0  3  0  0  0  0  0  0
   46.4450   14.5940   -4.6180 C   0  0  0  0  0  3  0  0  0  0  0  0
   45.5870   15.6690   -4.4130 C   0  0  0  0  0  3  0  0  0  0  0  0
   46.0860   16.8700   -3.9130 C   0  0  0  0  0  0  0  0  0  0  0  0
   47.4480   16.9920   -3.6120 C   0  0  0  0  0  3  0  0  0  0  0  0
   44.9820   18.2630   -3.6460 S   0  0  0  0  0  0  0  0  0  0  0  0
   45.3780   19.3610   -4.6440 O   0  0  0  0  0  0  0  0  0  0  0  0
   45.4390   18.9540   -2.3510 O   0  0  0  0  0  0  0  0  0  0  0  0
   43.1640   18.1500   -3.6160 C   0  0  0  0  0  2  0  0  0  0  0  0
   42.6480   17.2730   -4.7500 C   0  0  0  0  0  1  0  0  0  0  0  0
  2  3  1  0  0  0  0
  2  1  1  0  0  0  0
  3  5  2  0  0  0  0
  3  6  1  0  0  0  0
  4  3  2  0  0  0  0
  6  7  2  0  0  0  0
  7  8  1  0  0  0  0
  8  9  1  0  0  0  0
 10  8  1  0  0  0  0
 11  6  1  0  0  0  0
 11 10  2  0  0  0  0
 12 13  1  6  0  0  0
 12  2  1  0  0  0  0
 14 12  1  0  0  0  0
 15 16  1  0  0  0  0
 15 14  2  0  0  0  0
 17 18  1  0  0  0  0
 17 15  1  0  0  0  0
 18 20  2  0  0  0  0
 19 18  1  0  0  0  0
 20 14  1  0  0  0  0
 21  1  1  0  0  0  0
 21 22  1  0  0  0  0
 22 23  1  0  0  0  0
 24 22  2  0  0  0  0
 25 24  1  0  0  0  0
 26 25  2  0  0  0  0
 26 27  1  0  0  0  0
 27 21  2  0  0  0  0
 28 33  1  0  0  0  0
 28 25  1  0  0  0  0
 29 28  2  0  0  0  0
 30 31  2  0  0  0  0
 30 29  1  0  0  0  0
 31 32  1  0  0  0  0
 32 34  1  0  0  0  0
 32 33  2  0  0  0  0
 34 37  1  0  0  0  0
 34 36  2  0  0  0  0
 35 34  2  0  0  0  0
 38 37  1  0  0  0  0
M  END
>  <POSE>
1

>  <SCORE>
-7.394

>  <RMSD_LB_BP>
0.000

>  <RMSD_UB_BP>
0.000

$$$$
/content/4EXS_VS/DOCKING/CLC-0000181/CLC-0000181_output.pdbqt
 OpenBabel03062504413D

 38 41  0  0  1  0  0  0  0  0999 V2000
   54.0030   16.8060   -2.6020 C   0  0  0  0  0  2  0  0  0  0  0  0
   54.6360   17.5510   -3.7170 N   0  0  0  0  0  0  0  0  0  0  0  0
   55.2070   19.1550   -3.1210 S   0  0  0  0  0  0  0  0  0  0  0  0
   56.5580   18.9550   -2.4210 O   0  0  0  0  0  0  0  0  0  0  0  0
   54.2970   19.5230   -1.9370 O   0  0  0  0  0  0  0  0  0  0  0  0
   55.3070   20.4670   -4.3320 C   0  0  0  0  0  0  0  0  0  0  0  0
   56.2140   20.5550   -5.3620 C   0  0  0  0  0  3  0  0  0  0  0  0
   55.9670   21.7010   -6.0160 N   0  0  0  0  0  0  0  0  0  0  0  0
   56.6890   22.2120   -7.1740 C   0  0  0  0  0  1  0  0  0  0  0  0
   54.9260   22.2800   -5.3850 C   0  0  0  0  0  3  0  0  0  0  0  0
   54.4960   21.5430   -4.3400 N   0  0  0  0  0  0  0  0  0  0  0  0
   55.7180   16.8040   -4.4220 C   0  0  1  0  0  3  0  0  0  0  0  0
   55.6490   15.2750   -4.2120 C   0  0  0  0  0  1  0  0  0  0  0  0
   55.6120   17.0460   -5.9190 C   0  0  0  0  0  0  0  0  0  0  0  0
   56.6830   17.0710   -6.8310 C   0  0  0  0  0  0  0  0  0  0  0  0
   58.1450   16.8640   -6.5720 C   0  0  0  0  0  1  0  0  0  0  0  0
   56.0750   17.3770   -8.3710 S   0  0  0  0  0  0  0  0  0  0  0  0
   54.4650   17.4800   -7.9100 C   0  0  0  0  0  0  0  0  0  0  0  0
   53.3190   17.7510   -8.8260 C   0  0  0  0  0  1  0  0  0  0  0  0
   54.3710   17.2740   -6.5420 C   0  0  0  0  0  3  0  0  0  0  0  0
   52.5450   16.4940   -2.9020 C   0  0  0  0  0  0  0  0  0  0  0  0
   51.9190   15.2400   -2.6650 C   0  0  0  0  0  0  0  0  0  0  0  0
   52.6150   14.0250   -2.0940 C   0  0  0  0  0  1  0  0  0  0  0  0
   50.5530   15.0870   -2.9660 C   0  0  0  0  0  3  0  0  0  0  0  0
   49.7700   16.1380   -3.5010 C   0  0  0  0  0  0  0  0  0  0  0  0
   50.4260   17.3650   -3.7340 C   0  0  0  0  0  3  0  0  0  0  0  0
   51.7770   17.5340   -3.4430 C   0  0  0  0  0  3  0  0  0  0  0  0
   48.2920   15.9580   -3.8020 C   0  0  0  0  0  0  0  0  0  0  0  0
   47.7780   14.7250   -4.2800 C   0  0  0  0  0  3  0  0  0  0  0  0
   46.4190   14.5620   -4.5590 C   0  0  0  0  0  3  0  0  0  0  0  0
   45.5320   15.6180   -4.3760 C   0  0  0  0  0  3  0  0  0  0  0  0
   46.0000   16.8460   -3.9120 C   0  0  0  0  0  0  0  0  0  0  0  0
   47.3600   17.0130   -3.6240 C   0  0  0  0  0  3  0  0  0  0  0  0
   44.8590   18.2130   -3.6730 S   0  0  0  0  0  0  0  0  0  0  0  0
   45.2300   19.3030   -4.6900 O   0  0  0  0  0  0  0  0  0  0  0  0
   45.2930   18.9390   -2.3900 O   0  0  0  0  0  0  0  0  0  0  0  0
   43.0440   18.0540   -3.6470 C   0  0  0  0  0  2  0  0  0  0  0  0
   42.6200   16.6790   -3.1450 C   0  0  0  0  0  1  0  0  0  0  0  0
  2  3  1  0  0  0  0
  2  1  1  0  0  0  0
  3  4  2  0  0  0  0
  3  5  2  0  0  0  0
  6  3  1  0  0  0  0
  7  6  2  0  0  0  0
  8 10  1  0  0  0  0
  8  7  1  0  0  0  0
  9  8  1  0  0  0  0
 10 11  2  0  0  0  0
 11  6  1  0  0  0  0
 12 13  1  6  0  0  0
 12  2  1  0  0  0  0
 14 12  1  0  0  0  0
 15 16  1  0  0  0  0
 15 14  2  0  0  0  0
 17 18  1  0  0  0  0
 17 15  1  0  0  0  0
 18 20  2  0  0  0  0
 19 18  1  0  0  0  0
 20 14  1  0  0  0  0
 21 22  1  0  0  0  0
 21  1  1  0  0  0  0
 22 23  1  0  0  0  0
 24 22  2  0  0  0  0
 25 24  1  0  0  0  0
 26 25  2  0  0  0  0
 26 27  1  0  0  0  0
 27 21  2  0  0  0  0
 28 33  1  0  0  0  0
 28 25  1  0  0  0  0
 29 28  2  0  0  0  0
 30 31  2  0  0  0  0
 30 29  1  0  0  0  0
 31 32  1  0  0  0  0
 32 34  1  0  0  0  0
 32 33  2  0  0  0  0
 34 37  1  0  0  0  0
 34 36  2  0  0  0  0
 35 34  2  0  0  0  0
 37 38  1  0  0  0  0
M  END
>  <POSE>
2

>  <SCORE>
-7.372

>  <RMSD_LB_BP>
1.596

>  <RMSD_UB_BP>
2.264

$$$$
/content/4EXS_VS/DOCKING/CLC-0000181/CLC-0000181_output.pdbqt
 OpenBabel03062504413D

 38 41  0  0  1  0  0  0  0  0999 V2000
   54.4650   17.6620   -3.8880 C   0  0  0  0  0  2  0  0  0  0  0  0
   55.2620   16.4140   -3.9820 N   0  0  0  0  0  0  0  0  0  0  0  0
   56.1760   16.3990   -5.5380 S   0  0  0  0  0  0  0  0  0  0  0  0
   56.4640   14.9390   -5.9110 O   0  0  0  0  0  0  0  0  0  0  0  0
   57.5850   16.9200   -5.2130 O   0  0  0  0  0  0  0  0  0  0  0  0
   55.4300   17.2720   -6.9090 C   0  0  0  0  0  0  0  0  0  0  0  0
   55.7170   18.5560   -7.3070 C   0  0  0  0  0  3  0  0  0  0  0  0
   54.9190   18.8390   -8.3500 N   0  0  0  0  0  0  0  0  0  0  0  0
   54.8720   20.0930   -9.0900 C   0  0  0  0  0  1  0  0  0  0  0  0
   54.1750   17.7370   -8.5670 C   0  0  0  0  0  3  0  0  0  0  0  0
   54.4660   16.7510   -7.6930 N   0  0  0  0  0  0  0  0  0  0  0  0
   56.1530   16.1630   -2.8120 C   0  0  1  0  0  3  0  0  0  0  0  0
   55.9760   17.1880   -1.6710 C   0  0  0  0  0  1  0  0  0  0  0  0
   55.8470   14.7950   -2.2240 C   0  0  0  0  0  0  0  0  0  0  0  0
   56.7920   13.8690   -1.7440 C   0  0  0  0  0  0  0  0  0  0  0  0
   58.2840   13.9930   -1.6850 C   0  0  0  0  0  1  0  0  0  0  0  0
   55.9780   12.5010   -1.1950 S   0  0  0  0  0  0  0  0  0  0  0  0
   54.4350   13.0560   -1.5500 C   0  0  0  0  0  0  0  0  0  0  0  0
   53.1700   12.3040   -1.3100 C   0  0  0  0  0  1  0  0  0  0  0  0
   54.5250   14.3240   -2.1040 C   0  0  0  0  0  3  0  0  0  0  0  0
   52.9750   17.3650   -3.8350 C   0  0  0  0  0  0  0  0  0  0  0  0
   52.0540   17.9940   -2.9550 C   0  0  0  0  0  0  0  0  0  0  0  0
   52.4220   19.0410   -1.9290 C   0  0  0  0  0  1  0  0  0  0  0  0
   50.6920   17.6450   -3.0220 C   0  0  0  0  0  3  0  0  0  0  0  0
   50.1980   16.6840   -3.9370 C   0  0  0  0  0  0  0  0  0  0  0  0
   51.1420   16.0720   -4.7880 C   0  0  0  0  0  3  0  0  0  0  0  0
   52.4930   16.4040   -4.7350 C   0  0  0  0  0  3  0  0  0  0  0  0
   48.7210   16.3350   -4.0060 C   0  0  0  0  0  0  0  0  0  0  0  0
   48.2840   15.0080   -4.2500 C   0  0  0  0  0  3  0  0  0  0  0  0
   46.9250   14.6890   -4.3150 C   0  0  0  0  0  3  0  0  0  0  0  0
   45.9620   15.6780   -4.1460 C   0  0  0  0  0  3  0  0  0  0  0  0
   46.3520   16.9950   -3.9100 C   0  0  0  0  0  0  0  0  0  0  0  0
   47.7130   17.3200   -3.8360 C   0  0  0  0  0  3  0  0  0  0  0  0
   45.1130   18.2780   -3.6900 S   0  0  0  0  0  0  0  0  0  0  0  0
   45.4610   19.4220   -4.6550 O   0  0  0  0  0  0  0  0  0  0  0  0
   45.4340   18.9880   -2.3660 O   0  0  0  0  0  0  0  0  0  0  0  0
   43.3140   18.0000   -3.7630 C   0  0  0  0  0  2  0  0  0  0  0  0
   42.9160   16.7600   -2.9730 C   0  0  0  0  0  1  0  0  0  0  0  0
  1 21  1  0  0  0  0
  2  1  1  0  0  0  0
  2 12  1  0  0  0  0
  3  5  2  0  0  0  0
  3  2  1  0  0  0  0
  4  3  2  0  0  0  0
  6  3  1  0  0  0  0
  7  6  2  0  0  0  0
  8  7  1  0  0  0  0
  9  8  1  0  0  0  0
 10  8  1  0  0  0  0
 10 11  2  0  0  0  0
 11  6  1  0  0  0  0
 12 14  1  0  0  0  0
 12 13  1  1  0  0  0
 14 20  1  0  0  0  0
 14 15  2  0  0  0  0
 15 16  1  0  0  0  0
 15 17  1  0  0  0  0
 18 19  1  0  0  0  0
 18 17  1  0  0  0  0
 20 18  2  0  0  0  0
 21 22  1  0  0  0  0
 22 23  1  0  0  0  0
 24 22  2  0  0  0  0
 25 24  1  0  0  0  0
 26 27  1  0  0  0  0
 26 25  2  0  0  0  0
 27 21  2  0  0  0  0
 28 25  1  0  0  0  0
 28 33  1  0  0  0  0
 29 28  2  0  0  0  0
 30 29  1  0  0  0  0
 30 31  2  0  0  0  0
 31 32  1  0  0  0  0
 32 33  2  0  0  0  0
 32 34  1  0  0  0  0
 34 36  2  0  0  0  0
 35 34  2  0  0  0  0
 37 34  1  0  0  0  0
 37 38  1  0  0  0  0
M  END
>  <POSE>
3

>  <SCORE>
-7.120

>  <RMSD_LB_BP>
2.378

>  <RMSD_UB_BP>
4.658

$$$$
/content/4EXS_VS/DOCKING/CLC-0000181/CLC-0000181_output.pdbqt
 OpenBabel03062504413D

 38 41  0  0  1  0  0  0  0  0999 V2000
   54.4490   16.8200   -4.1050 C   0  0  0  0  0  2  0  0  0  0  0  0
   54.8480   18.2360   -4.3000 N   0  0  0  0  0  0  0  0  0  0  0  0
   54.5460   19.1600   -2.7800 S   0  0  0  0  0  0  0  0  0  0  0  0
   53.0660   19.5640   -2.7490 O   0  0  0  0  0  0  0  0  0  0  0  0
   55.2350   20.5220   -2.9620 O   0  0  0  0  0  0  0  0  0  0  0  0
   55.0190   18.3590   -1.2530 C   0  0  0  0  0  0  0  0  0  0  0  0
   55.7930   17.2290   -1.1340 C   0  0  0  0  0  3  0  0  0  0  0  0
   55.8850   16.9420    0.1750 N   0  0  0  0  0  0  0  0  0  0  0  0
   56.6020   15.8230    0.7690 C   0  0  0  0  0  1  0  0  0  0  0  0
   55.1780   17.8910    0.8200 C   0  0  0  0  0  3  0  0  0  0  0  0
   54.6310   18.7810   -0.0340 N   0  0  0  0  0  0  0  0  0  0  0  0
   56.2430   18.4200   -4.7950 C   0  0  1  0  0  3  0  0  0  0  0  0
   56.8490   17.1450   -5.4200 C   0  0  0  0  0  1  0  0  0  0  0  0
   56.2620   19.4900   -5.8750 C   0  0  0  0  0  0  0  0  0  0  0  0
   57.1540   20.5750   -5.9500 C   0  0  0  0  0  0  0  0  0  0  0  0
   58.2760   20.9370   -5.0240 C   0  0  0  0  0  1  0  0  0  0  0  0
   56.7850   21.4860   -7.3170 S   0  0  0  0  0  0  0  0  0  0  0  0
   55.5060   20.5290   -7.8300 C   0  0  0  0  0  0  0  0  0  0  0  0
   54.6760   20.7730   -9.0450 C   0  0  0  0  0  1  0  0  0  0  0  0
   55.3430   19.4750   -6.9420 C   0  0  0  0  0  3  0  0  0  0  0  0
   52.9440   16.6460   -4.2310 C   0  0  0  0  0  0  0  0  0  0  0  0
   52.2260   16.6620   -5.4570 C   0  0  0  0  0  0  0  0  0  0  0  0
   52.8510   16.8720   -6.8180 C   0  0  0  0  0  1  0  0  0  0  0  0
   50.8320   16.4660   -5.4400 C   0  0  0  0  0  3  0  0  0  0  0  0
   50.1100   16.2520   -4.2410 C   0  0  0  0  0  0  0  0  0  0  0  0
   50.8530   16.2530   -3.0420 C   0  0  0  0  0  3  0  0  0  0  0  0
   52.2320   16.4470   -3.0410 C   0  0  0  0  0  3  0  0  0  0  0  0
   48.6080   16.0230   -4.2460 C   0  0  0  0  0  0  0  0  0  0  0  0
   48.0530   14.7520   -4.5410 C   0  0  0  0  0  3  0  0  0  0  0  0
   46.6710   14.5450   -4.5470 C   0  0  0  0  0  3  0  0  0  0  0  0
   45.8010   15.5930   -4.2650 C   0  0  0  0  0  3  0  0  0  0  0  0
   46.3090   16.8580   -3.9750 C   0  0  0  0  0  0  0  0  0  0  0  0
   47.6940   17.0710   -3.9610 C   0  0  0  0  0  3  0  0  0  0  0  0
   45.1910   18.2160   -3.6090 S   0  0  0  0  0  0  0  0  0  0  0  0
   45.4560   19.3200   -4.6450 O   0  0  0  0  0  0  0  0  0  0  0  0
   45.7450   18.9300   -2.3660 O   0  0  0  0  0  0  0  0  0  0  0  0
   43.3890   18.0460   -3.4080 C   0  0  0  0  0  2  0  0  0  0  0  0
   42.7510   17.4430   -4.6530 C   0  0  0  0  0  1  0  0  0  0  0  0
  2  1  1  0  0  0  0
  2  3  1  0  0  0  0
  3  4  2  0  0  0  0
  3  6  1  0  0  0  0
  5  3  2  0  0  0  0
  6  7  2  0  0  0  0
  6 11  1  0  0  0  0
  7  8  1  0  0  0  0
  8  9  1  0  0  0  0
  8 10  1  0  0  0  0
 11 10  2  0  0  0  0
 12 13  1  6  0  0  0
 12  2  1  0  0  0  0
 14 12  1  0  0  0  0
 15 14  2  0  0  0  0
 15 16  1  0  0  0  0
 17 15  1  0  0  0  0
 18 17  1  0  0  0  0
 18 20  2  0  0  0  0
 19 18  1  0  0  0  0
 20 14  1  0  0  0  0
 21  1  1  0  0  0  0
 21 27  1  0  0  0  0
 22 24  1  0  0  0  0
 22 21  2  0  0  0  0
 23 22  1  0  0  0  0
 24 25  2  0  0  0  0
 25 26  1  0  0  0  0
 26 27  2  0  0  0  0
 28 25  1  0  0  0  0
 28 33  1  0  0  0  0
 29 28  2  0  0  0  0
 30 29  1  0  0  0  0
 30 31  2  0  0  0  0
 31 32  1  0  0  0  0
 32 33  2  0  0  0  0
 32 34  1  0  0  0  0
 34 37  1  0  0  0  0
 34 36  2  0  0  0  0
 35 34  2  0  0  0  0
 38 37  1  0  0  0  0
M  END
>  <POSE>
4

>  <SCORE>
-6.960

>  <RMSD_LB_BP>
2.207

>  <RMSD_UB_BP>
2.809

$$$$
/content/4EXS_VS/DOCKING/CLC-0000181/CLC-0000181_output.pdbqt
 OpenBabel03062504413D

 38 41  0  0  1  0  0  0  0  0999 V2000
   54.5980   16.8040   -3.9910 C   0  0  0  0  0  2  0  0  0  0  0  0
   54.9420   17.5870   -2.7790 N   0  0  0  0  0  0  0  0  0  0  0  0
   56.0280   16.6100   -1.7200 S   0  0  0  0  0  0  0  0  0  0  0  0
   55.7450   16.9900   -0.2610 O   0  0  0  0  0  0  0  0  0  0  0  0
   57.4440   17.1750   -1.9180 O   0  0  0  0  0  0  0  0  0  0  0  0
   55.9700   14.8360   -1.9380 C   0  0  0  0  0  0  0  0  0  0  0  0
   54.8550   14.0390   -1.8210 C   0  0  0  0  0  3  0  0  0  0  0  0
   55.2460   12.7710   -2.0300 N   0  0  0  0  0  0  0  0  0  0  0  0
   54.3990   11.5860   -1.9950 C   0  0  0  0  0  1  0  0  0  0  0  0
   56.5710   12.8190   -2.2720 C   0  0  0  0  0  3  0  0  0  0  0  0
   57.0480   14.0800   -2.2220 N   0  0  0  0  0  0  0  0  0  0  0  0
   55.5090   18.9380   -3.0600 C   0  0  1  0  0  3  0  0  0  0  0  0
   55.5510   19.2890   -4.5630 C   0  0  0  0  0  1  0  0  0  0  0  0
   54.6530   19.9980   -2.3860 C   0  0  0  0  0  0  0  0  0  0  0  0
   54.5500   21.3480   -2.7720 C   0  0  0  0  0  0  0  0  0  0  0  0
   55.2250   22.0560   -3.9070 C   0  0  0  0  0  1  0  0  0  0  0  0
   53.4880   22.1300   -1.7260 S   0  0  0  0  0  0  0  0  0  0  0  0
   53.1450   20.7860   -0.7810 C   0  0  0  0  0  0  0  0  0  0  0  0
   52.2260   20.7670    0.3940 C   0  0  0  0  0  1  0  0  0  0  0  0
   53.8530   19.6970   -1.2670 C   0  0  0  0  0  3  0  0  0  0  0  0
   53.0930   16.6350   -4.1320 C   0  0  0  0  0  0  0  0  0  0  0  0
   52.3900   16.6300   -5.3670 C   0  0  0  0  0  0  0  0  0  0  0  0
   53.0340   16.8080   -6.7240 C   0  0  0  0  0  1  0  0  0  0  0  0
   50.9960   16.4420   -5.3640 C   0  0  0  0  0  3  0  0  0  0  0  0
   50.2570   16.2570   -4.1700 C   0  0  0  0  0  0  0  0  0  0  0  0
   50.9850   16.2790   -2.9620 C   0  0  0  0  0  3  0  0  0  0  0  0
   52.3650   16.4650   -2.9470 C   0  0  0  0  0  3  0  0  0  0  0  0
   48.7540   16.0370   -4.1890 C   0  0  0  0  0  0  0  0  0  0  0  0
   48.1940   14.7690   -4.4910 C   0  0  0  0  0  3  0  0  0  0  0  0
   46.8120   14.5700   -4.5100 C   0  0  0  0  0  3  0  0  0  0  0  0
   45.9450   15.6230   -4.2350 C   0  0  0  0  0  3  0  0  0  0  0  0
   46.4580   16.8850   -3.9390 C   0  0  0  0  0  0  0  0  0  0  0  0
   47.8430   17.0890   -3.9110 C   0  0  0  0  0  3  0  0  0  0  0  0
   45.3440   18.2490   -3.5820 S   0  0  0  0  0  0  0  0  0  0  0  0
   45.6720   19.3790   -4.5700 O   0  0  0  0  0  0  0  0  0  0  0  0
   45.8510   18.9160   -2.2940 O   0  0  0  0  0  0  0  0  0  0  0  0
   43.5320   18.1020   -3.4690 C   0  0  0  0  0  2  0  0  0  0  0  0
   42.9750   17.2630   -4.6120 C   0  0  0  0  0  1  0  0  0  0  0  0
  1  2  1  0  0  0  0
  2  3  1  0  0  0  0
  3  4  2  0  0  0  0
  5  3  2  0  0  0  0
  6  7  2  0  0  0  0
  6  3  1  0  0  0  0
  8  9  1  0  0  0  0
  8  7  1  0  0  0  0
 10 11  2  0  0  0  0
 10  8  1  0  0  0  0
 11  6  1  0  0  0  0
 12 13  1  6  0  0  0
 12  2  1  0  0  0  0
 12 14  1  0  0  0  0
 14 20  1  0  0  0  0
 15 14  2  0  0  0  0
 15 17  1  0  0  0  0
 16 15  1  0  0  0  0
 17 18  1  0  0  0  0
 18 19  1  0  0  0  0
 20 18  2  0  0  0  0
 21  1  1  0  0  0  0
 21 27  1  0  0  0  0
 22 24  1  0  0  0  0
 22 21  2  0  0  0  0
 23 22  1  0  0  0  0
 24 25  2  0  0  0  0
 25 26  1  0  0  0  0
 26 27  2  0  0  0  0
 28 25  1  0  0  0  0
 28 33  1  0  0  0  0
 29 28  2  0  0  0  0
 30 29  1  0  0  0  0
 30 31  2  0  0  0  0
 31 32  1  0  0  0  0
 32 33  2  0  0  0  0
 32 34  1  0  0  0  0
 34 37  1  0  0  0  0
 34 36  2  0  0  0  0
 35 34  2  0  0  0  0
 38 37  1  0  0  0  0
M  END
>  <POSE>
5

>  <SCORE>
-6.781

>  <RMSD_LB_BP>
2.088

>  <RMSD_UB_BP>
4.772

$$$$
/content/4EXS_VS/DOCKING/CLC-0000181/CLC-0000181_output.pdbqt
 OpenBabel03062504413D

 38 41  0  0  1  0  0  0  0  0999 V2000
   54.6770   16.8630   -3.9910 C   0  0  0  0  0  2  0  0  0  0  0  0
   55.0100   17.6780   -2.7970 N   0  0  0  0  0  0  0  0  0  0  0  0
   56.1330   16.7530   -1.7310 S   0  0  0  0  0  0  0  0  0  0  0  0
   55.8680   15.2560   -1.9370 O   0  0  0  0  0  0  0  0  0  0  0  0
   55.6310   16.9610   -0.2930 O   0  0  0  0  0  0  0  0  0  0  0  0
   57.8750   17.1190   -1.9000 C   0  0  0  0  0  0  0  0  0  0  0  0
   58.6710   16.8020   -2.9760 C   0  0  0  0  0  3  0  0  0  0  0  0
   59.9140   17.2240   -2.6920 N   0  0  0  0  0  0  0  0  0  0  0  0
   61.0900   17.0920   -3.5410 C   0  0  0  0  0  1  0  0  0  0  0  0
   59.8530   17.7850   -1.4680 C   0  0  0  0  0  3  0  0  0  0  0  0
   58.6070   17.7360   -0.9520 N   0  0  0  0  0  0  0  0  0  0  0  0
   55.5340   19.0400   -3.1070 C   0  0  1  0  0  3  0  0  0  0  0  0
   55.5530   19.3630   -4.6170 C   0  0  0  0  0  1  0  0  0  0  0  0
   54.6530   20.0870   -2.4460 C   0  0  0  0  0  0  0  0  0  0  0  0
   54.5460   21.4380   -2.8240 C   0  0  0  0  0  0  0  0  0  0  0  0
   55.2410   22.1610   -3.9390 C   0  0  0  0  0  1  0  0  0  0  0  0
   53.4530   22.2030   -1.7970 S   0  0  0  0  0  0  0  0  0  0  0  0
   53.1010   20.8490   -0.8700 C   0  0  0  0  0  0  0  0  0  0  0  0
   52.1550   20.8120    0.2830 C   0  0  0  0  0  1  0  0  0  0  0  0
   53.8300   19.7700   -1.3480 C   0  0  0  0  0  3  0  0  0  0  0  0
   53.1750   16.6730   -4.1310 C   0  0  0  0  0  0  0  0  0  0  0  0
   52.4730   16.6470   -5.3660 C   0  0  0  0  0  0  0  0  0  0  0  0
   53.1150   16.8210   -6.7240 C   0  0  0  0  0  1  0  0  0  0  0  0
   51.0810   16.4400   -5.3620 C   0  0  0  0  0  3  0  0  0  0  0  0
   50.3440   16.2570   -4.1660 C   0  0  0  0  0  0  0  0  0  0  0  0
   51.0710   16.2990   -2.9580 C   0  0  0  0  0  3  0  0  0  0  0  0
   52.4490   16.5040   -2.9450 C   0  0  0  0  0  3  0  0  0  0  0  0
   48.8440   16.0170   -4.1840 C   0  0  0  0  0  0  0  0  0  0  0  0
   48.3000   14.7530   -4.5260 C   0  0  0  0  0  3  0  0  0  0  0  0
   46.9200   14.5350   -4.5440 C   0  0  0  0  0  3  0  0  0  0  0  0
   46.0410   15.5660   -4.2270 C   0  0  0  0  0  3  0  0  0  0  0  0
   46.5380   16.8230   -3.8900 C   0  0  0  0  0  0  0  0  0  0  0  0
   47.9210   17.0460   -3.8640 C   0  0  0  0  0  3  0  0  0  0  0  0
   45.4080   18.1590   -3.4800 S   0  0  0  0  0  0  0  0  0  0  0  0
   45.5880   19.2540   -4.5410 O   0  0  0  0  0  0  0  0  0  0  0  0
   46.0120   18.9020   -2.2780 O   0  0  0  0  0  0  0  0  0  0  0  0
   43.6240   17.9470   -3.1770 C   0  0  0  0  0  2  0  0  0  0  0  0
   42.8240   18.1220   -4.4620 C   0  0  0  0  0  1  0  0  0  0  0  0
  1  2  1  0  0  0  0
  2  3  1  0  0  0  0
  3  5  2  0  0  0  0
  4  3  2  0  0  0  0
  6  3  1  0  0  0  0
  6 11  1  0  0  0  0
  7  8  1  0  0  0  0
  7  6  2  0  0  0  0
  8 10  1  0  0  0  0
  9  8  1  0  0  0  0
 10 11  2  0  0  0  0
 12 13  1  6  0  0  0
 12  2  1  0  0  0  0
 12 14  1  0  0  0  0
 14 20  1  0  0  0  0
 15 14  2  0  0  0  0
 15 17  1  0  0  0  0
 16 15  1  0  0  0  0
 17 18  1  0  0  0  0
 18 19  1  0  0  0  0
 20 18  2  0  0  0  0
 21  1  1  0  0  0  0
 21 27  1  0  0  0  0
 22 24  1  0  0  0  0
 22 21  2  0  0  0  0
 23 22  1  0  0  0  0
 24 25  2  0  0  0  0
 25 26  1  0  0  0  0
 26 27  2  0  0  0  0
 28 25  1  0  0  0  0
 28 33  1  0  0  0  0
 29 28  2  0  0  0  0
 30 29  1  0  0  0  0
 30 31  2  0  0  0  0
 31 32  1  0  0  0  0
 32 33  2  0  0  0  0
 32 34  1  0  0  0  0
 34 37  1  0  0  0  0
 34 36  2  0  0  0  0
 35 34  2  0  0  0  0
 38 37  1  0  0  0  0
M  END
>  <POSE>
6

>  <SCORE>
-6.721

>  <RMSD_LB_BP>
2.323

>  <RMSD_UB_BP>
4.641

$$$$
/content/4EXS_VS/DOCKING/CLC-0000181/CLC-0000181_output.pdbqt
 OpenBabel03062504413D

 38 41  0  0  1  0  0  0  0  0999 V2000
   54.4720   18.1610   -3.0280 C   0  0  0  0  0  2  0  0  0  0  0  0
   55.3360   17.2540   -3.8230 N   0  0  0  0  0  0  0  0  0  0  0  0
   55.9970   18.1470   -5.2440 S   0  0  0  0  0  0  0  0  0  0  0  0
   56.1900   19.6150   -4.8420 O   0  0  0  0  0  0  0  0  0  0  0  0
   54.8480   18.2530   -6.2600 O   0  0  0  0  0  0  0  0  0  0  0  0
   57.4900   17.4880   -5.9760 C   0  0  0  0  0  0  0  0  0  0  0  0
   58.7720   17.6760   -5.5170 C   0  0  0  0  0  3  0  0  0  0  0  0
   59.5980   17.0420   -6.3650 N   0  0  0  0  0  0  0  0  0  0  0  0
   61.0510   16.9800   -6.2760 C   0  0  0  0  0  1  0  0  0  0  0  0
   58.8150   16.4840   -7.3090 C   0  0  0  0  0  3  0  0  0  0  0  0
   57.5080   16.7410   -7.0980 N   0  0  0  0  0  0  0  0  0  0  0  0
   56.4130   16.5840   -3.0380 C   0  0  1  0  0  3  0  0  0  0  0  0
   56.5650   17.1360   -1.6040 C   0  0  0  0  0  1  0  0  0  0  0  0
   56.0990   15.1020   -2.9060 C   0  0  0  0  0  0  0  0  0  0  0  0
   56.7650   14.0530   -3.5670 C   0  0  0  0  0  0  0  0  0  0  0  0
   57.9150   14.1250   -4.5260 C   0  0  0  0  0  1  0  0  0  0  0  0
   56.0640   12.5940   -3.1070 S   0  0  0  0  0  0  0  0  0  0  0  0
   54.9210   13.2600   -2.0760 C   0  0  0  0  0  0  0  0  0  0  0  0
   53.9100   12.4930   -1.2930 C   0  0  0  0  0  1  0  0  0  0  0  0
   55.0670   14.6400   -2.0680 C   0  0  0  0  0  3  0  0  0  0  0  0
   53.0050   17.7820   -3.1560 C   0  0  0  0  0  0  0  0  0  0  0  0
   51.9290   18.4890   -2.5550 C   0  0  0  0  0  0  0  0  0  0  0  0
   52.0860   19.7150   -1.6840 C   0  0  0  0  0  1  0  0  0  0  0  0
   50.6100   18.0480   -2.7700 C   0  0  0  0  0  3  0  0  0  0  0  0
   50.3090   16.9170   -3.5670 C   0  0  0  0  0  0  0  0  0  0  0  0
   51.4010   16.2320   -4.1400 C   0  0  0  0  0  3  0  0  0  0  0  0
   52.7120   16.6550   -3.9360 C   0  0  0  0  0  3  0  0  0  0  0  0
   48.8770   16.4670   -3.8020 C   0  0  0  0  0  0  0  0  0  0  0  0
   48.5780   15.1660   -4.2840 C   0  0  0  0  0  3  0  0  0  0  0  0
   47.2610   14.7560   -4.5020 C   0  0  0  0  0  3  0  0  0  0  0  0
   46.2030   15.6240   -4.2530 C   0  0  0  0  0  3  0  0  0  0  0  0
   46.4570   16.9110   -3.7830 C   0  0  0  0  0  0  0  0  0  0  0  0
   47.7750   17.3260   -3.5560 C   0  0  0  0  0  3  0  0  0  0  0  0
   45.0950   18.0370   -3.4580 S   0  0  0  0  0  0  0  0  0  0  0  0
   45.1330   19.1270   -4.5400 O   0  0  0  0  0  0  0  0  0  0  0  0
   45.5020   18.8960   -2.2520 O   0  0  0  0  0  0  0  0  0  0  0  0
   43.3610   17.5240   -3.2290 C   0  0  0  0  0  2  0  0  0  0  0  0
   42.5310   17.8200   -4.4720 C   0  0  0  0  0  1  0  0  0  0  0  0
  2 12  1  0  0  0  0
  2  1  1  0  0  0  0
  3  4  2  0  0  0  0
  3  2  1  0  0  0  0
  5  3  2  0  0  0  0
  6  7  2  0  0  0  0
  6  3  1  0  0  0  0
  8  9  1  0  0  0  0
  8  7  1  0  0  0  0
 10 11  2  0  0  0  0
 10  8  1  0  0  0  0
 11  6  1  0  0  0  0
 12 14  1  0  0  0  0
 12 13  1  1  0  0  0
 14 20  1  0  0  0  0
 15 17  1  0  0  0  0
 15 14  2  0  0  0  0
 16 15  1  0  0  0  0
 17 18  1  0  0  0  0
 18 20  2  0  0  0  0
 18 19  1  0  0  0  0
 21  1  1  0  0  0  0
 21 22  1  0  0  0  0
 22 23  1  0  0  0  0
 24 22  2  0  0  0  0
 25 24  1  0  0  0  0
 26 27  1  0  0  0  0
 26 25  2  0  0  0  0
 27 21  2  0  0  0  0
 28 25  1  0  0  0  0
 28 33  1  0  0  0  0
 29 28  2  0  0  0  0
 30 29  1  0  0  0  0
 30 31  2  0  0  0  0
 31 32  1  0  0  0  0
 32 33  2  0  0  0  0
 32 34  1  0  0  0  0
 34 37  1  0  0  0  0
 34 36  2  0  0  0  0
 35 34  2  0  0  0  0
 38 37  1  0  0  0  0
M  END
>  <POSE>
7

>  <SCORE>
-6.442

>  <RMSD_LB_BP>
2.162

>  <RMSD_UB_BP>
4.665

$$$$
/content/4EXS_VS/DOCKING/CLC-0000181/CLC-0000181_output.pdbqt
 OpenBabel03062504413D

 38 41  0  0  1  0  0  0  0  0999 V2000
   56.4310   17.5210   -4.9760 C   0  0  0  0  0  2  0  0  0  0  0  0
   56.5400   18.9500   -5.3590 N   0  0  0  0  0  0  0  0  0  0  0  0
   57.0590   19.9180   -3.9280 S   0  0  0  0  0  0  0  0  0  0  0  0
   55.8070   20.5220   -3.2780 O   0  0  0  0  0  0  0  0  0  0  0  0
   57.7530   21.1710   -4.4850 O   0  0  0  0  0  0  0  0  0  0  0  0
   58.0610   19.0710   -2.7130 C   0  0  0  0  0  0  0  0  0  0  0  0
   59.4320   18.9630   -2.7240 C   0  0  0  0  0  3  0  0  0  0  0  0
   59.7830   18.2260   -1.6570 N   0  0  0  0  0  0  0  0  0  0  0  0
   61.1360   17.8480   -1.2720 C   0  0  0  0  0  1  0  0  0  0  0  0
   58.6370   17.9080   -1.0230 C   0  0  0  0  0  3  0  0  0  0  0  0
   57.5560   18.4140   -1.6510 N   0  0  0  0  0  0  0  0  0  0  0  0
   57.4070   19.2050   -6.5460 C   0  0  1  0  0  3  0  0  0  0  0  0
   57.7470   17.9290   -7.3460 C   0  0  0  0  0  1  0  0  0  0  0  0
   56.6940   20.1460   -7.5040 C   0  0  0  0  0  0  0  0  0  0  0  0
   57.2870   21.1990   -8.2250 C   0  0  0  0  0  0  0  0  0  0  0  0
   58.7200   21.6400   -8.2390 C   0  0  0  0  0  1  0  0  0  0  0  0
   56.1010   21.9570   -9.1480 S   0  0  0  0  0  0  0  0  0  0  0  0
   54.8340   20.9740   -8.6550 C   0  0  0  0  0  0  0  0  0  0  0  0
   53.4180   21.0970   -9.1070 C   0  0  0  0  0  1  0  0  0  0  0  0
   55.3140   20.0300   -7.7600 C   0  0  0  0  0  3  0  0  0  0  0  0
   55.0040   17.1560   -4.5960 C   0  0  0  0  0  0  0  0  0  0  0  0
   53.9900   16.7800   -5.5170 C   0  0  0  0  0  0  0  0  0  0  0  0
   54.1760   16.7010   -7.0160 C   0  0  0  0  0  1  0  0  0  0  0  0
   52.7120   16.4430   -5.0340 C   0  0  0  0  0  3  0  0  0  0  0  0
   52.3920   16.4660   -3.6550 C   0  0  0  0  0  0  0  0  0  0  0  0
   53.4190   16.8550   -2.7690 C   0  0  0  0  0  3  0  0  0  0  0  0
   54.6890   17.1920   -3.2310 C   0  0  0  0  0  3  0  0  0  0  0  0
   51.0110   16.0810   -3.1510 C   0  0  0  0  0  0  0  0  0  0  0  0
   50.8010   14.9010   -2.3920 C   0  0  0  0  0  3  0  0  0  0  0  0
   49.5300   14.5480   -1.9320 C   0  0  0  0  0  3  0  0  0  0  0  0
   48.4310   15.3520   -2.2160 C   0  0  0  0  0  3  0  0  0  0  0  0
   48.5970   16.5170   -2.9630 C   0  0  0  0  0  0  0  0  0  0  0  0
   49.8690   16.8800   -3.4210 C   0  0  0  0  0  3  0  0  0  0  0  0
   47.1810   17.5600   -3.3320 S   0  0  0  0  0  0  0  0  0  0  0  0
   47.5840   18.4870   -4.4890 O   0  0  0  0  0  0  0  0  0  0  0  0
   47.0950   18.6110   -2.2140 O   0  0  0  0  0  0  0  0  0  0  0  0
   45.4990   16.9420   -3.6590 C   0  0  0  0  0  2  0  0  0  0  0  0
   45.5320   15.5280   -4.2240 C   0  0  0  0  0  1  0  0  0  0  0  0
  1 21  1  0  0  0  0
  2  1  1  0  0  0  0
  2  3  1  0  0  0  0
  3  4  2  0  0  0  0
  3  6  1  0  0  0  0
  5  3  2  0  0  0  0
  6 11  1  0  0  0  0
  7  6  2  0  0  0  0
  7  8  1  0  0  0  0
  8  9  1  0  0  0  0
  8 10  1  0  0  0  0
 11 10  2  0  0  0  0
 12 13  1  6  0  0  0
 12  2  1  0  0  0  0
 14 12  1  0  0  0  0
 15 14  2  0  0  0  0
 16 15  1  0  0  0  0
 17 18  1  0  0  0  0
 17 15  1  0  0  0  0
 18 20  2  0  0  0  0
 19 18  1  0  0  0  0
 20 14  1  0  0  0  0
 21 27  1  0  0  0  0
 22 24  1  0  0  0  0
 22 21  2  0  0  0  0
 23 22  1  0  0  0  0
 24 25  2  0  0  0  0
 25 28  1  0  0  0  0
 25 26  1  0  0  0  0
 27 26  2  0  0  0  0
 28 29  1  0  0  0  0
 29 30  2  0  0  0  0
 31 30  1  0  0  0  0
 32 31  2  0  0  0  0
 33 28  2  0  0  0  0
 33 32  1  0  0  0  0
 34 32  1  0  0  0  0
 34 36  2  0  0  0  0
 35 34  2  0  0  0  0
 37 34  1  0  0  0  0
 38 37  1  0  0  0  0
M  END
>  <POSE>
8

>  <SCORE>
-6.404

>  <RMSD_LB_BP>
2.876

>  <RMSD_UB_BP>
4.133

$$$$
/content/4EXS_VS/DOCKING/CLC-0000181/CLC-0000181_output.pdbqt
 OpenBabel03062504413D

 38 41  0  0  1  0  0  0  0  0999 V2000
   56.8070   17.2440   -5.7510 C   0  0  0  0  0  2  0  0  0  0  0  0
   57.4390   18.3990   -5.0690 N   0  0  0  0  0  0  0  0  0  0  0  0
   58.8650   17.8320   -4.1210 S   0  0  0  0  0  0  0  0  0  0  0  0
   60.0100   18.8320   -4.3300 O   0  0  0  0  0  0  0  0  0  0  0  0
   59.4010   16.5900   -4.8520 O   0  0  0  0  0  0  0  0  0  0  0  0
   58.5950   17.5290   -2.3790 C   0  0  0  0  0  0  0  0  0  0  0  0
   57.6110   18.0900   -1.6000 C   0  0  0  0  0  3  0  0  0  0  0  0
   57.7760   17.6250   -0.3510 N   0  0  0  0  0  0  0  0  0  0  0  0
   56.9650   17.9580    0.8120 C   0  0  0  0  0  1  0  0  0  0  0  0
   58.8390   16.7990   -0.3920 C   0  0  0  0  0  3  0  0  0  0  0  0
   59.3680   16.7180   -1.6310 N   0  0  0  0  0  0  0  0  0  0  0  0
   57.7890   19.5330   -5.9740 C   0  0  1  0  0  3  0  0  0  0  0  0
   58.0550   19.0990   -7.4310 C   0  0  0  0  0  1  0  0  0  0  0  0
   56.6380   20.5250   -6.0150 C   0  0  0  0  0  0  0  0  0  0  0  0
   56.2320   21.3670   -4.9630 C   0  0  0  0  0  0  0  0  0  0  0  0
   56.8120   21.5010   -3.5870 C   0  0  0  0  0  1  0  0  0  0  0  0
   54.9160   22.2810   -5.4790 S   0  0  0  0  0  0  0  0  0  0  0  0
   54.8430   21.6340   -7.0250 C   0  0  0  0  0  0  0  0  0  0  0  0
   53.8540   22.0130   -8.0750 C   0  0  0  0  0  1  0  0  0  0  0  0
   55.8500   20.6900   -7.1700 C   0  0  0  0  0  3  0  0  0  0  0  0
   55.4050   16.9880   -5.2230 C   0  0  0  0  0  0  0  0  0  0  0  0
   54.2420   16.8690   -6.0320 C   0  0  0  0  0  0  0  0  0  0  0  0
   54.2260   16.9960   -7.5380 C   0  0  0  0  0  1  0  0  0  0  0  0
   53.0020   16.6080   -5.4200 C   0  0  0  0  0  3  0  0  0  0  0  0
   52.8630   16.4590   -4.0190 C   0  0  0  0  0  0  0  0  0  0  0  0
   54.0360   16.5940   -3.2450 C   0  0  0  0  0  3  0  0  0  0  0  0
   55.2700   16.8530   -3.8350 C   0  0  0  0  0  3  0  0  0  0  0  0
   51.5190   16.1590   -3.3780 C   0  0  0  0  0  0  0  0  0  0  0  0
   51.3370   15.0400   -2.5250 C   0  0  0  0  0  3  0  0  0  0  0  0
   50.0990   14.7650   -1.9390 C   0  0  0  0  0  3  0  0  0  0  0  0
   49.0050   15.5880   -2.1870 C   0  0  0  0  0  3  0  0  0  0  0  0
   49.1430   16.6940   -3.0240 C   0  0  0  0  0  0  0  0  0  0  0  0
   50.3830   16.9790   -3.6090 C   0  0  0  0  0  3  0  0  0  0  0  0
   47.7340   17.7610   -3.3480 S   0  0  0  0  0  0  0  0  0  0  0  0
   48.1740   18.7940   -4.3960 O   0  0  0  0  0  0  0  0  0  0  0  0
   47.5980   18.7010   -2.1410 O   0  0  0  0  0  0  0  0  0  0  0  0
   46.0700   17.1690   -3.7960 C   0  0  0  0  0  2  0  0  0  0  0  0
   46.0750   15.6700   -4.0690 C   0  0  0  0  0  1  0  0  0  0  0  0
  1 21  1  0  0  0  0
  1  2  1  0  0  0  0
  2  3  1  0  0  0  0
  3  6  1  0  0  0  0
  4  3  2  0  0  0  0
  5  3  2  0  0  0  0
  6 11  1  0  0  0  0
  6  7  2  0  0  0  0
  7  8  1  0  0  0  0
  8  9  1  0  0  0  0
 10  8  1  0  0  0  0
 11 10  2  0  0  0  0
 12 13  1  6  0  0  0
 12  2  1  0  0  0  0
 14 12  1  0  0  0  0
 14 15  2  0  0  0  0
 15 16  1  0  0  0  0
 17 15  1  0  0  0  0
 18 17  1  0  0  0  0
 19 18  1  0  0  0  0
 20 18  2  0  0  0  0
 20 14  1  0  0  0  0
 21 27  1  0  0  0  0
 22 24  1  0  0  0  0
 22 21  2  0  0  0  0
 23 22  1  0  0  0  0
 24 25  2  0  0  0  0
 25 28  1  0  0  0  0
 25 26  1  0  0  0  0
 27 26  2  0  0  0  0
 28 29  1  0  0  0  0
 29 30  2  0  0  0  0
 31 30  1  0  0  0  0
 32 31  2  0  0  0  0
 33 28  2  0  0  0  0
 33 32  1  0  0  0  0
 34 32  1  0  0  0  0
 34 36  2  0  0  0  0
 35 34  2  0  0  0  0
 37 34  1  0  0  0  0
 38 37  1  0  0  0  0
M  END
>  <POSE>
9

>  <SCORE>
-6.161

>  <RMSD_LB_BP>
2.955

>  <RMSD_UB_BP>
4.435

$$$$
