/content/4EXS_VS/DOCKING/CLC-0000185/CLC-0000185_output.pdbqt
 OpenBabel03062504413D

 39 42  0  0  1  0  0  0  0  0999 V2000
   53.4110   17.1130   -5.0710 N   0  0  0  0  0  0  0  0  0  0  0  0
   54.1130   17.0760   -6.7220 S   0  0  0  0  0  0  0  0  0  0  0  0
   52.9400   17.0180   -7.7120 O   0  0  0  0  0  0  0  0  0  0  0  0
   54.6670   15.6480   -6.8480 O   0  0  0  0  0  0  0  0  0  0  0  0
   55.3900   18.2460   -7.1890 C   0  0  0  0  0  0  0  0  0  0  0  0
   56.5840   17.9270   -7.7950 C   0  0  0  0  0  3  0  0  0  0  0  0
   57.2580   19.0740   -7.9820 N   0  0  0  0  0  0  0  0  0  0  0  0
   58.5720   19.2330   -8.5900 C   0  0  0  0  0  1  0  0  0  0  0  0
   56.4760   20.0560   -7.4950 C   0  0  0  0  0  3  0  0  0  0  0  0
   55.3170   19.5780   -6.9990 N   0  0  0  0  0  0  0  0  0  0  0  0
   52.5860   15.8950   -4.8870 C   0  0  0  0  0  2  0  0  0  0  0  0
   51.1390   16.2200   -4.5640 C   0  0  0  0  0  0  0  0  0  0  0  0
   50.4860   15.7520   -3.4000 C   0  0  0  0  0  0  0  0  0  0  0  0
   51.1740   14.9180   -2.3510 C   0  0  0  0  0  1  0  0  0  0  0  0
   49.1360   16.0800   -3.1820 C   0  0  0  0  0  3  0  0  0  0  0  0
   48.3980   16.8790   -4.0910 C   0  0  0  0  0  0  0  0  0  0  0  0
   49.0850   17.3390   -5.2370 C   0  0  0  0  0  3  0  0  0  0  0  0
   50.4210   17.0150   -5.4650 C   0  0  0  0  0  3  0  0  0  0  0  0
   46.9410   17.2310   -3.8450 C   0  0  0  0  0  0  0  0  0  0  0  0
   46.5730   18.3790   -3.0950 C   0  0  0  0  0  3  0  0  0  0  0  0
   45.2330   18.6990   -2.8680 C   0  0  0  0  0  3  0  0  0  0  0  0
   44.2200   17.8940   -3.3790 C   0  0  0  0  0  3  0  0  0  0  0  0
   44.5420   16.7610   -4.1240 C   0  0  0  0  0  0  0  0  0  0  0  0
   45.8850   16.4310   -4.3520 C   0  0  0  0  0  3  0  0  0  0  0  0
   43.2340   15.7190   -4.7810 S   0  0  0  0  0  0  0  0  0  0  0  0
   42.8090   14.7640   -3.6550 O   0  0  0  0  0  0  0  0  0  0  0  0
   43.8950   14.6930   -5.7140 O   0  0  0  0  0  0  0  0  0  0  0  0
   41.7270   16.3410   -5.5940 C   0  0  0  0  0  2  0  0  0  0  0  0
   40.5010   15.5450   -5.1640 C   0  0  0  0  0  1  0  0  0  0  0  0
   54.3640   17.3780   -3.9480 C   0  0  2  0  0  3  0  0  0  0  0  0
   55.1770   16.1540   -3.4840 C   0  0  0  0  0  0  0  0  0  0  0  0
   56.4990   15.7580   -3.8210 C   0  0  0  0  0  0  0  0  0  0  0  0
   57.5420   16.3970   -4.6860 C   0  0  0  0  0  1  0  0  0  0  0  0
   56.8710   14.3350   -3.0020 S   0  0  0  0  0  0  0  0  0  0  0  0
   55.4220   14.1990   -2.1890 C   0  0  0  0  0  0  0  0  0  0  0  0
   55.0790   13.1050   -1.2330 C   0  0  0  0  0  1  0  0  0  0  0  0
   54.6080   15.2610   -2.5420 C   0  0  0  0  0  3  0  0  0  0  0  0
   53.7770   18.2240   -2.7660 C   0  0  0  0  0  2  0  0  0  0  0  0
   54.7660   18.8220   -1.7560 C   0  0  0  0  0  1  0  0  0  0  0  0
  1 11  1  0  0  0  0
  1 30  1  0  0  0  0
  2  1  1  0  0  0  0
  3  2  2  0  0  0  0
  4  2  2  0  0  0  0
  5 10  1  0  0  0  0
  5  2  1  0  0  0  0
  6  5  2  0  0  0  0
  7  6  1  0  0  0  0
  7  9  1  0  0  0  0
  8  7  1  0  0  0  0
  9 10  2  0  0  0  0
 11 12  1  0  0  0  0
 12 13  1  0  0  0  0
 13 15  2  0  0  0  0
 13 14  1  0  0  0  0
 16 19  1  0  0  0  0
 16 15  1  0  0  0  0
 17 16  2  0  0  0  0
 18 17  1  0  0  0  0
 18 12  2  0  0  0  0
 19 20  1  0  0  0  0
 20 21  2  0  0  0  0
 22 21  1  0  0  0  0
 23 22  2  0  0  0  0
 24 23  1  0  0  0  0
 24 19  2  0  0  0  0
 25 23  1  0  0  0  0
 25 26  2  0  0  0  0
 27 25  2  0  0  0  0
 28 29  1  0  0  0  0
 28 25  1  0  0  0  0
 30 31  1  0  0  0  0
 30 38  1  1  0  0  0
 31 37  1  0  0  0  0
 32 31  2  0  0  0  0
 32 34  1  0  0  0  0
 33 32  1  0  0  0  0
 34 35  1  0  0  0  0
 35 36  1  0  0  0  0
 37 35  2  0  0  0  0
 38 39  1  0  0  0  0
M  END
>  <POSE>
1

>  <SCORE>
-7.289

>  <RMSD_LB_BP>
0.000

>  <RMSD_UB_BP>
0.000

$$$$
/content/4EXS_VS/DOCKING/CLC-0000185/CLC-0000185_output.pdbqt
 OpenBabel03062504413D

 39 42  0  0  1  0  0  0  0  0999 V2000
   53.5420   17.1070   -5.0460 N   0  0  0  0  0  0  0  0  0  0  0  0
   54.1890   17.1430   -6.7180 S   0  0  0  0  0  0  0  0  0  0  0  0
   52.9860   17.0820   -7.6710 O   0  0  0  0  0  0  0  0  0  0  0  0
   54.7790   15.7380   -6.9100 O   0  0  0  0  0  0  0  0  0  0  0  0
   55.4160   18.3660   -7.1880 C   0  0  0  0  0  0  0  0  0  0  0  0
   56.7470   18.1120   -7.4260 C   0  0  0  0  0  3  0  0  0  0  0  0
   57.3270   19.2790   -7.7520 N   0  0  0  0  0  0  0  0  0  0  0  0
   58.7260   19.5030   -8.0900 C   0  0  0  0  0  1  0  0  0  0  0  0
   56.3550   20.2090   -7.7070 C   0  0  0  0  0  3  0  0  0  0  0  0
   55.1640   19.6780   -7.3620 N   0  0  0  0  0  0  0  0  0  0  0  0
   52.7160   15.8860   -4.8910 C   0  0  0  0  0  2  0  0  0  0  0  0
   51.2670   16.2030   -4.5680 C   0  0  0  0  0  0  0  0  0  0  0  0
   50.6200   15.7430   -3.3980 C   0  0  0  0  0  0  0  0  0  0  0  0
   51.3160   14.9250   -2.3420 C   0  0  0  0  0  1  0  0  0  0  0  0
   49.2680   16.0650   -3.1790 C   0  0  0  0  0  3  0  0  0  0  0  0
   48.5230   16.8490   -4.0950 C   0  0  0  0  0  0  0  0  0  0  0  0
   49.2040   17.3020   -5.2480 C   0  0  0  0  0  3  0  0  0  0  0  0
   50.5410   16.9850   -5.4750 C   0  0  0  0  0  3  0  0  0  0  0  0
   47.0640   17.1940   -3.8490 C   0  0  0  0  0  0  0  0  0  0  0  0
   46.6900   18.3380   -3.0970 C   0  0  0  0  0  3  0  0  0  0  0  0
   45.3490   18.6520   -2.8700 C   0  0  0  0  0  3  0  0  0  0  0  0
   44.3400   17.8430   -3.3820 C   0  0  0  0  0  3  0  0  0  0  0  0
   44.6680   16.7130   -4.1290 C   0  0  0  0  0  0  0  0  0  0  0  0
   46.0120   16.3890   -4.3580 C   0  0  0  0  0  3  0  0  0  0  0  0
   43.3650   15.6660   -4.7890 S   0  0  0  0  0  0  0  0  0  0  0  0
   42.9470   14.7030   -3.6660 O   0  0  0  0  0  0  0  0  0  0  0  0
   44.0300   14.6470   -5.7270 O   0  0  0  0  0  0  0  0  0  0  0  0
   41.8520   16.2810   -5.5970 C   0  0  0  0  0  2  0  0  0  0  0  0
   40.6040   15.7800   -4.8820 C   0  0  0  0  0  1  0  0  0  0  0  0
   54.5330   17.3140   -3.9440 C   0  0  2  0  0  3  0  0  0  0  0  0
   54.7240   18.7800   -3.5090 C   0  0  0  0  0  0  0  0  0  0  0  0
   53.9050   19.5990   -2.6860 C   0  0  0  0  0  0  0  0  0  0  0  0
   52.6340   19.3160   -1.9460 C   0  0  0  0  0  1  0  0  0  0  0  0
   54.6170   21.1170   -2.5440 S   0  0  0  0  0  0  0  0  0  0  0  0
   55.9660   20.7830   -3.4640 C   0  0  0  0  0  0  0  0  0  0  0  0
   57.0690   21.7490   -3.7450 C   0  0  0  0  0  1  0  0  0  0  0  0
   55.8910   19.4760   -3.9110 C   0  0  0  0  0  3  0  0  0  0  0  0
   55.8810   16.5300   -4.1080 C   0  0  0  0  0  2  0  0  0  0  0  0
   55.9750   15.1330   -3.4780 C   0  0  0  0  0  1  0  0  0  0  0  0
  1 11  1  0  0  0  0
  1 30  1  0  0  0  0
  2  1  1  0  0  0  0
  3  2  2  0  0  0  0
  4  2  2  0  0  0  0
  5  2  1  0  0  0  0
  6  5  2  0  0  0  0
  7  9  1  0  0  0  0
  7  6  1  0  0  0  0
  8  7  1  0  0  0  0
  9 10  2  0  0  0  0
 10  5  1  0  0  0  0
 11 12  1  0  0  0  0
 12 13  1  0  0  0  0
 13 15  2  0  0  0  0
 13 14  1  0  0  0  0
 16 19  1  0  0  0  0
 16 15  1  0  0  0  0
 17 16  2  0  0  0  0
 18 17  1  0  0  0  0
 18 12  2  0  0  0  0
 19 20  1  0  0  0  0
 20 21  2  0  0  0  0
 22 21  1  0  0  0  0
 23 22  2  0  0  0  0
 24 23  1  0  0  0  0
 24 19  2  0  0  0  0
 25 23  1  0  0  0  0
 25 26  2  0  0  0  0
 27 25  2  0  0  0  0
 28 29  1  0  0  0  0
 28 25  1  0  0  0  0
 30 38  1  6  0  0  0
 30 31  1  0  0  0  0
 31 32  2  0  0  0  0
 32 34  1  0  0  0  0
 32 33  1  0  0  0  0
 35 34  1  0  0  0  0
 36 35  1  0  0  0  0
 37 31  1  0  0  0  0
 37 35  2  0  0  0  0
 38 39  1  0  0  0  0
M  END
>  <POSE>
2

>  <SCORE>
-7.196

>  <RMSD_LB_BP>
1.396

>  <RMSD_UB_BP>
2.780

$$$$
/content/4EXS_VS/DOCKING/CLC-0000185/CLC-0000185_output.pdbqt
 OpenBabel03062504413D

 39 42  0  0  1  0  0  0  0  0999 V2000
   54.8490   18.5270   -3.0720 N   0  0  0  0  0  0  0  0  0  0  0  0
   55.5440   19.7870   -4.1430 S   0  0  0  0  0  0  0  0  0  0  0  0
   56.7110   20.4340   -3.3830 O   0  0  0  0  0  0  0  0  0  0  0  0
   54.5050   20.9180   -4.0930 O   0  0  0  0  0  0  0  0  0  0  0  0
   55.9230   19.4110   -5.8560 C   0  0  0  0  0  0  0  0  0  0  0  0
   57.0080   18.6870   -6.2950 C   0  0  0  0  0  3  0  0  0  0  0  0
   56.9350   18.6240   -7.6340 N   0  0  0  0  0  0  0  0  0  0  0  0
   57.8650   17.9590   -8.5370 C   0  0  0  0  0  1  0  0  0  0  0  0
   55.8240   19.2990   -7.9830 C   0  0  0  0  0  3  0  0  0  0  0  0
   55.1770   19.7970   -6.9100 N   0  0  0  0  0  0  0  0  0  0  0  0
   54.6040   17.3090   -3.8820 C   0  0  0  0  0  2  0  0  0  0  0  0
   53.1250   16.9950   -4.0210 C   0  0  0  0  0  0  0  0  0  0  0  0
   52.5100   16.7230   -5.2640 C   0  0  0  0  0  0  0  0  0  0  0  0
   53.2680   16.6830   -6.5660 C   0  0  0  0  0  1  0  0  0  0  0  0
   51.1290   16.4580   -5.3130 C   0  0  0  0  0  3  0  0  0  0  0  0
   50.3230   16.4460   -4.1480 C   0  0  0  0  0  0  0  0  0  0  0  0
   50.9730   16.7100   -2.9200 C   0  0  0  0  0  3  0  0  0  0  0  0
   52.3390   16.9770   -2.8630 C   0  0  0  0  0  3  0  0  0  0  0  0
   48.8330   16.1570   -4.2100 C   0  0  0  0  0  0  0  0  0  0  0  0
   48.3420   14.8610   -4.5200 C   0  0  0  0  0  3  0  0  0  0  0  0
   46.9720   14.5980   -4.5790 C   0  0  0  0  0  3  0  0  0  0  0  0
   46.0490   15.6090   -4.3300 C   0  0  0  0  0  3  0  0  0  0  0  0
   46.4930   16.8920   -4.0180 C   0  0  0  0  0  0  0  0  0  0  0  0
   47.8670   17.1660   -3.9610 C   0  0  0  0  0  3  0  0  0  0  0  0
   45.3020   18.1990   -3.6990 S   0  0  0  0  0  0  0  0  0  0  0  0
   45.7060   19.4000   -4.5680 O   0  0  0  0  0  0  0  0  0  0  0  0
   45.6340   18.7930   -2.3210 O   0  0  0  0  0  0  0  0  0  0  0  0
   43.4940   18.0010   -3.8130 C   0  0  0  0  0  2  0  0  0  0  0  0
   43.0140   16.8360   -2.9580 C   0  0  0  0  0  1  0  0  0  0  0  0
   55.5760   18.2680   -1.7900 C   0  0  2  0  0  3  0  0  0  0  0  0
   56.3500   16.9370   -1.7380 C   0  0  0  0  0  0  0  0  0  0  0  0
   57.5890   16.5810   -2.3360 C   0  0  0  0  0  0  0  0  0  0  0  0
   58.5590   17.3670   -3.1640 C   0  0  0  0  0  1  0  0  0  0  0  0
   57.9560   14.9900   -1.9300 S   0  0  0  0  0  0  0  0  0  0  0  0
   56.6130   14.7210   -0.9800 C   0  0  0  0  0  0  0  0  0  0  0  0
   56.3140   13.4440   -0.2670 C   0  0  0  0  0  1  0  0  0  0  0  0
   55.8400   15.8680   -0.9610 C   0  0  0  0  0  3  0  0  0  0  0  0
   54.7500   18.5620   -0.4890 C   0  0  0  0  0  2  0  0  0  0  0  0
   53.7940   19.7620   -0.5070 C   0  0  0  0  0  1  0  0  0  0  0  0
  1 30  1  0  0  0  0
  2  4  2  0  0  0  0
  2  3  2  0  0  0  0
  2  1  1  0  0  0  0
  5  2  1  0  0  0  0
  6  5  2  0  0  0  0
  7  6  1  0  0  0  0
  8  7  1  0  0  0  0
  9  7  1  0  0  0  0
  9 10  2  0  0  0  0
 10  5  1  0  0  0  0
 11  1  1  0  0  0  0
 12 11  1  0  0  0  0
 12 18  1  0  0  0  0
 13 12  2  0  0  0  0
 14 13  1  0  0  0  0
 15 13  1  0  0  0  0
 15 16  2  0  0  0  0
 16 17  1  0  0  0  0
 17 18  2  0  0  0  0
 19 16  1  0  0  0  0
 19 24  1  0  0  0  0
 20 19  2  0  0  0  0
 21 20  1  0  0  0  0
 21 22  2  0  0  0  0
 22 23  1  0  0  0  0
 23 24  2  0  0  0  0
 23 25  1  0  0  0  0
 25 27  2  0  0  0  0
 26 25  2  0  0  0  0
 28 25  1  0  0  0  0
 28 29  1  0  0  0  0
 30 31  1  0  0  0  0
 30 38  1  1  0  0  0
 31 37  1  0  0  0  0
 32 34  1  0  0  0  0
 32 31  2  0  0  0  0
 33 32  1  0  0  0  0
 34 35  1  0  0  0  0
 35 37  2  0  0  0  0
 35 36  1  0  0  0  0
 39 38  1  0  0  0  0
M  END
>  <POSE>
3

>  <SCORE>
-7.160

>  <RMSD_LB_BP>
2.450

>  <RMSD_UB_BP>
3.178

$$$$
/content/4EXS_VS/DOCKING/CLC-0000185/CLC-0000185_output.pdbqt
 OpenBabel03062504413D

 39 42  0  0  1  0  0  0  0  0999 V2000
   54.5520   17.1380   -2.4980 N   0  0  0  0  0  0  0  0  0  0  0  0
   54.6200   18.9240   -2.3540 S   0  0  0  0  0  0  0  0  0  0  0  0
   54.4110   19.2670   -0.8710 O   0  0  0  0  0  0  0  0  0  0  0  0
   53.2810   19.3880   -2.9490 O   0  0  0  0  0  0  0  0  0  0  0  0
   55.9560   19.8440   -3.1220 C   0  0  0  0  0  0  0  0  0  0  0  0
   57.1960   19.3390   -3.4380 C   0  0  0  0  0  3  0  0  0  0  0  0
   57.9050   20.3340   -3.9970 N   0  0  0  0  0  0  0  0  0  0  0  0
   59.2730   20.2700   -4.4920 C   0  0  0  0  0  1  0  0  0  0  0  0
   57.0970   21.4100   -4.0120 C   0  0  0  0  0  3  0  0  0  0  0  0
   55.8870   21.1420   -3.4800 N   0  0  0  0  0  0  0  0  0  0  0  0
   54.1650   16.7960   -3.8880 C   0  0  0  0  0  2  0  0  0  0  0  0
   52.6690   16.5850   -4.0370 C   0  0  0  0  0  0  0  0  0  0  0  0
   52.0000   16.6680   -5.2800 C   0  0  0  0  0  0  0  0  0  0  0  0
   52.7120   16.9370   -6.5810 C   0  0  0  0  0  1  0  0  0  0  0  0
   50.6070   16.4780   -5.3340 C   0  0  0  0  0  3  0  0  0  0  0  0
   49.8410   16.1960   -4.1760 C   0  0  0  0  0  0  0  0  0  0  0  0
   50.5430   16.1080   -2.9520 C   0  0  0  0  0  3  0  0  0  0  0  0
   51.9220   16.2990   -2.8890 C   0  0  0  0  0  3  0  0  0  0  0  0
   48.3370   15.9900   -4.2430 C   0  0  0  0  0  0  0  0  0  0  0  0
   47.7770   14.7350   -4.5970 C   0  0  0  0  0  3  0  0  0  0  0  0
   46.3950   14.5480   -4.6620 C   0  0  0  0  0  3  0  0  0  0  0  0
   45.5280   15.5980   -4.3750 C   0  0  0  0  0  3  0  0  0  0  0  0
   46.0410   16.8440   -4.0190 C   0  0  0  0  0  0  0  0  0  0  0  0
   47.4270   17.0400   -3.9570 C   0  0  0  0  0  3  0  0  0  0  0  0
   44.9220   18.2010   -3.6510 S   0  0  0  0  0  0  0  0  0  0  0  0
   45.1970   19.3050   -4.6840 O   0  0  0  0  0  0  0  0  0  0  0  0
   45.4660   18.9150   -2.4040 O   0  0  0  0  0  0  0  0  0  0  0  0
   43.1170   18.0340   -3.4700 C   0  0  0  0  0  2  0  0  0  0  0  0
   42.4660   17.6430   -4.7900 C   0  0  0  0  0  1  0  0  0  0  0  0
   55.7430   16.3830   -1.9960 C   0  0  2  0  0  3  0  0  0  0  0  0
   55.7580   14.8830   -2.3480 C   0  0  0  0  0  0  0  0  0  0  0  0
   56.5760   14.1720   -3.2670 C   0  0  0  0  0  0  0  0  0  0  0  0
   57.6990   14.6160   -4.1520 C   0  0  0  0  0  1  0  0  0  0  0  0
   56.1540   12.5430   -3.2290 S   0  0  0  0  0  0  0  0  0  0  0  0
   54.9800   12.6770   -2.0530 C   0  0  0  0  0  0  0  0  0  0  0  0
   54.1770   11.5390   -1.5150 C   0  0  0  0  0  1  0  0  0  0  0  0
   54.8840   14.0010   -1.6650 C   0  0  0  0  0  3  0  0  0  0  0  0
   56.1350   16.6790   -0.5060 C   0  0  0  0  0  2  0  0  0  0  0  0
   57.4550   17.4190   -0.2500 C   0  0  0  0  0  1  0  0  0  0  0  0
  1  2  1  0  0  0  0
  1 30  1  0  0  0  0
  2  3  2  0  0  0  0
  4  2  2  0  0  0  0
  5  2  1  0  0  0  0
  6  5  2  0  0  0  0
  7  6  1  0  0  0  0
  8  7  1  0  0  0  0
  9  7  1  0  0  0  0
  9 10  2  0  0  0  0
 10  5  1  0  0  0  0
 11  1  1  0  0  0  0
 12 11  1  0  0  0  0
 12 18  1  0  0  0  0
 13 12  2  0  0  0  0
 14 13  1  0  0  0  0
 15 13  1  0  0  0  0
 15 16  2  0  0  0  0
 16 17  1  0  0  0  0
 17 18  2  0  0  0  0
 19 16  1  0  0  0  0
 19 24  1  0  0  0  0
 20 19  2  0  0  0  0
 21 20  1  0  0  0  0
 21 22  2  0  0  0  0
 22 23  1  0  0  0  0
 23 24  2  0  0  0  0
 23 25  1  0  0  0  0
 25 28  1  0  0  0  0
 25 27  2  0  0  0  0
 26 25  2  0  0  0  0
 29 28  1  0  0  0  0
 30 38  1  1  0  0  0
 31 30  1  0  0  0  0
 31 37  1  0  0  0  0
 32 34  1  0  0  0  0
 32 31  2  0  0  0  0
 33 32  1  0  0  0  0
 34 35  1  0  0  0  0
 35 37  2  0  0  0  0
 35 36  1  0  0  0  0
 38 39  1  0  0  0  0
M  END
>  <POSE>
4

>  <SCORE>
-6.901

>  <RMSD_LB_BP>
2.808

>  <RMSD_UB_BP>
3.520

$$$$
/content/4EXS_VS/DOCKING/CLC-0000185/CLC-0000185_output.pdbqt
 OpenBabel03062504413D

 39 42  0  0  1  0  0  0  0  0999 V2000
   54.2970   17.0680   -2.5280 N   0  0  0  0  0  0  0  0  0  0  0  0
   54.3180   18.8540   -2.3620 S   0  0  0  0  0  0  0  0  0  0  0  0
   54.9290   19.1750   -0.9900 O   0  0  0  0  0  0  0  0  0  0  0  0
   52.8450   19.2130   -2.1130 O   0  0  0  0  0  0  0  0  0  0  0  0
   54.9570   19.8780   -3.6900 C   0  0  0  0  0  0  0  0  0  0  0  0
   55.9330   19.5080   -4.5870 C   0  0  0  0  0  3  0  0  0  0  0  0
   56.1280   20.5440   -5.4190 N   0  0  0  0  0  0  0  0  0  0  0  0
   57.0640   20.6150   -6.5330 C   0  0  0  0  0  1  0  0  0  0  0  0
   55.2800   21.5120   -5.0220 C   0  0  0  0  0  3  0  0  0  0  0  0
   54.5440   21.1330   -3.9570 N   0  0  0  0  0  0  0  0  0  0  0  0
   53.9050   16.7320   -3.9170 C   0  0  0  0  0  2  0  0  0  0  0  0
   52.4080   16.5270   -4.0630 C   0  0  0  0  0  0  0  0  0  0  0  0
   51.7290   16.6580   -5.2960 C   0  0  0  0  0  0  0  0  0  0  0  0
   52.4310   16.9790   -6.5910 C   0  0  0  0  0  1  0  0  0  0  0  0
   50.3360   16.4700   -5.3460 C   0  0  0  0  0  3  0  0  0  0  0  0
   49.5790   16.1420   -4.1940 C   0  0  0  0  0  0  0  0  0  0  0  0
   50.2910   16.0060   -2.9810 C   0  0  0  0  0  3  0  0  0  0  0  0
   51.6700   16.1950   -2.9210 C   0  0  0  0  0  3  0  0  0  0  0  0
   48.0740   15.9380   -4.2580 C   0  0  0  0  0  0  0  0  0  0  0  0
   47.5120   14.6840   -4.6120 C   0  0  0  0  0  3  0  0  0  0  0  0
   46.1290   14.5000   -4.6730 C   0  0  0  0  0  3  0  0  0  0  0  0
   45.2650   15.5500   -4.3830 C   0  0  0  0  0  3  0  0  0  0  0  0
   45.7800   16.7950   -4.0270 C   0  0  0  0  0  0  0  0  0  0  0  0
   47.1670   16.9900   -3.9680 C   0  0  0  0  0  3  0  0  0  0  0  0
   44.6640   18.1540   -3.6550 S   0  0  0  0  0  0  0  0  0  0  0  0
   44.9640   19.2740   -4.6640 O   0  0  0  0  0  0  0  0  0  0  0  0
   45.1920   18.8420   -2.3860 O   0  0  0  0  0  0  0  0  0  0  0  0
   42.8550   17.9960   -3.5070 C   0  0  0  0  0  2  0  0  0  0  0  0
   42.2180   17.6960   -4.8570 C   0  0  0  0  0  1  0  0  0  0  0  0
   55.5130   16.3400   -2.0460 C   0  0  2  0  0  3  0  0  0  0  0  0
   56.7520   16.4730   -2.9520 C   0  0  0  0  0  0  0  0  0  0  0  0
   57.8970   17.3020   -2.8140 C   0  0  0  0  0  0  0  0  0  0  0  0
   58.3020   18.2730   -1.7480 C   0  0  0  0  0  1  0  0  0  0  0  0
   58.9390   17.0170   -4.1040 S   0  0  0  0  0  0  0  0  0  0  0  0
   58.0150   15.8410   -4.8400 C   0  0  0  0  0  0  0  0  0  0  0  0
   58.3890   15.1210   -6.0930 C   0  0  0  0  0  1  0  0  0  0  0  0
   56.8650   15.6450   -4.0970 C   0  0  0  0  0  3  0  0  0  0  0  0
   55.2550   14.8750   -1.5490 C   0  0  0  0  0  2  0  0  0  0  0  0
   56.3590   14.1960   -0.7270 C   0  0  0  0  0  1  0  0  0  0  0  0
  1  2  1  0  0  0  0
  1 30  1  0  0  0  0
  2  4  2  0  0  0  0
  2  3  2  0  0  0  0
  5  2  1  0  0  0  0
  6  5  2  0  0  0  0
  7  9  1  0  0  0  0
  7  6  1  0  0  0  0
  8  7  1  0  0  0  0
  9 10  2  0  0  0  0
 10  5  1  0  0  0  0
 11  1  1  0  0  0  0
 12 11  1  0  0  0  0
 12 18  1  0  0  0  0
 13 12  2  0  0  0  0
 14 13  1  0  0  0  0
 15 13  1  0  0  0  0
 15 16  2  0  0  0  0
 16 17  1  0  0  0  0
 17 18  2  0  0  0  0
 19 16  1  0  0  0  0
 19 24  1  0  0  0  0
 20 19  2  0  0  0  0
 21 20  1  0  0  0  0
 21 22  2  0  0  0  0
 22 23  1  0  0  0  0
 23 24  2  0  0  0  0
 23 25  1  0  0  0  0
 25 28  1  0  0  0  0
 25 27  2  0  0  0  0
 26 25  2  0  0  0  0
 29 28  1  0  0  0  0
 30 38  1  6  0  0  0
 31 32  2  0  0  0  0
 31 30  1  0  0  0  0
 32 33  1  0  0  0  0
 34 32  1  0  0  0  0
 35 34  1  0  0  0  0
 35 37  2  0  0  0  0
 36 35  1  0  0  0  0
 37 31  1  0  0  0  0
 38 39  1  0  0  0  0
M  END
>  <POSE>
5

>  <SCORE>
-6.850

>  <RMSD_LB_BP>
2.672

>  <RMSD_UB_BP>
3.676

$$$$
/content/4EXS_VS/DOCKING/CLC-0000185/CLC-0000185_output.pdbqt
 OpenBabel03062504413D

 39 42  0  0  1  0  0  0  0  0999 V2000
   55.4900   17.5810   -3.2940 N   0  0  0  0  0  0  0  0  0  0  0  0
   55.4090   19.3610   -3.5020 S   0  0  0  0  0  0  0  0  0  0  0  0
   55.1680   19.6320   -4.9940 O   0  0  0  0  0  0  0  0  0  0  0  0
   56.8720   19.8100   -3.3600 O   0  0  0  0  0  0  0  0  0  0  0  0
   54.3810   20.3530   -2.4160 C   0  0  0  0  0  0  0  0  0  0  0  0
   53.7290   19.8960   -1.2940 C   0  0  0  0  0  3  0  0  0  0  0  0
   53.0720   20.9380   -0.7580 N   0  0  0  0  0  0  0  0  0  0  0  0
   52.2440   20.9350    0.4400 C   0  0  0  0  0  1  0  0  0  0  0  0
   53.3320   21.9950   -1.5500 C   0  0  0  0  0  3  0  0  0  0  0  0
   54.1370   21.6680   -2.5810 N   0  0  0  0  0  0  0  0  0  0  0  0
   54.9760   16.9430   -4.5290 C   0  0  0  0  0  2  0  0  0  0  0  0
   53.4780   16.7050   -4.4780 C   0  0  0  0  0  0  0  0  0  0  0  0
   52.6490   16.7660   -5.6210 C   0  0  0  0  0  0  0  0  0  0  0  0
   53.1780   17.0380   -7.0060 C   0  0  0  0  0  1  0  0  0  0  0  0
   51.2650   16.5520   -5.4890 C   0  0  0  0  0  3  0  0  0  0  0  0
   50.6640   16.2660   -4.2380 C   0  0  0  0  0  0  0  0  0  0  0  0
   51.5230   16.2000   -3.1180 C   0  0  0  0  0  3  0  0  0  0  0  0
   52.8940   16.4150   -3.2390 C   0  0  0  0  0  3  0  0  0  0  0  0
   49.1680   16.0330   -4.1050 C   0  0  0  0  0  0  0  0  0  0  0  0
   48.6170   14.7260   -4.1320 C   0  0  0  0  0  3  0  0  0  0  0  0
   47.2420   14.5140   -4.0120 C   0  0  0  0  0  3  0  0  0  0  0  0
   46.3740   15.5910   -3.8600 C   0  0  0  0  0  3  0  0  0  0  0  0
   46.8790   16.8890   -3.8250 C   0  0  0  0  0  0  0  0  0  0  0  0
   48.2570   17.1100   -3.9490 C   0  0  0  0  0  3  0  0  0  0  0  0
   45.7580   18.2810   -3.6320 S   0  0  0  0  0  0  0  0  0  0  0  0
   46.2390   19.3840   -4.5880 O   0  0  0  0  0  0  0  0  0  0  0  0
   46.1070   18.9650   -2.3010 O   0  0  0  0  0  0  0  0  0  0  0  0
   43.9440   18.1740   -3.7600 C   0  0  0  0  0  2  0  0  0  0  0  0
   43.5120   16.8300   -4.3330 C   0  0  0  0  0  1  0  0  0  0  0  0
   56.7960   17.0250   -2.8190 C   0  0  2  0  0  3  0  0  0  0  0  0
   57.0470   15.5510   -3.1900 C   0  0  0  0  0  0  0  0  0  0  0  0
   56.3920   14.3740   -2.7380 C   0  0  0  0  0  0  0  0  0  0  0  0
   55.2380   14.1710   -1.8050 C   0  0  0  0  0  1  0  0  0  0  0  0
   57.0830   13.0380   -3.4920 S   0  0  0  0  0  0  0  0  0  0  0  0
   58.1790   13.8860   -4.4170 C   0  0  0  0  0  0  0  0  0  0  0  0
   59.1470   13.2710   -5.3740 C   0  0  0  0  0  1  0  0  0  0  0  0
   58.0360   15.2370   -4.1550 C   0  0  0  0  0  3  0  0  0  0  0  0
   57.1620   17.3670   -1.3330 C   0  0  0  0  0  2  0  0  0  0  0  0
   58.6080   17.7830   -1.0320 C   0  0  0  0  0  1  0  0  0  0  0  0
  1 30  1  0  0  0  0
  2  4  2  0  0  0  0
  2  1  1  0  0  0  0
  2  5  1  0  0  0  0
  3  2  2  0  0  0  0
  5  6  2  0  0  0  0
  6  7  1  0  0  0  0
  7  8  1  0  0  0  0
  9  7  1  0  0  0  0
 10  5  1  0  0  0  0
 10  9  2  0  0  0  0
 11 12  1  0  0  0  0
 11  1  1  0  0  0  0
 12 18  1  0  0  0  0
 13 15  1  0  0  0  0
 13 12  2  0  0  0  0
 14 13  1  0  0  0  0
 15 16  2  0  0  0  0
 16 19  1  0  0  0  0
 16 17  1  0  0  0  0
 18 17  2  0  0  0  0
 19 24  1  0  0  0  0
 20 19  2  0  0  0  0
 20 21  1  0  0  0  0
 21 22  2  0  0  0  0
 22 23  1  0  0  0  0
 23 25  1  0  0  0  0
 24 23  2  0  0  0  0
 25 27  2  0  0  0  0
 26 25  2  0  0  0  0
 28 25  1  0  0  0  0
 29 28  1  0  0  0  0
 30 38  1  1  0  0  0
 31 30  1  0  0  0  0
 31 32  2  0  0  0  0
 32 33  1  0  0  0  0
 34 32  1  0  0  0  0
 35 37  2  0  0  0  0
 35 34  1  0  0  0  0
 36 35  1  0  0  0  0
 37 31  1  0  0  0  0
 38 39  1  0  0  0  0
M  END
>  <POSE>
6

>  <SCORE>
-6.785

>  <RMSD_LB_BP>
2.883

>  <RMSD_UB_BP>
4.606

$$$$
/content/4EXS_VS/DOCKING/CLC-0000185/CLC-0000185_output.pdbqt
 OpenBabel03062504413D

 39 42  0  0  1  0  0  0  0  0999 V2000
   55.3610   16.8950   -3.8360 N   0  0  0  0  0  0  0  0  0  0  0  0
   55.9690   15.8710   -2.4950 S   0  0  0  0  0  0  0  0  0  0  0  0
   55.7330   16.6450   -1.1900 O   0  0  0  0  0  0  0  0  0  0  0  0
   57.4970   15.9780   -2.6200 O   0  0  0  0  0  0  0  0  0  0  0  0
   55.5070   14.1390   -2.3970 C   0  0  0  0  0  0  0  0  0  0  0  0
   54.3770   13.6470   -1.7860 C   0  0  0  0  0  3  0  0  0  0  0  0
   54.3910   12.3120   -1.9310 N   0  0  0  0  0  0  0  0  0  0  0  0
   53.3970   11.3630   -1.4470 C   0  0  0  0  0  1  0  0  0  0  0  0
   55.5120   12.0180   -2.6160 C   0  0  0  0  0  3  0  0  0  0  0  0
   56.2220   13.1240   -2.9190 N   0  0  0  0  0  0  0  0  0  0  0  0
   54.4870   17.9460   -3.2620 C   0  0  0  0  0  2  0  0  0  0  0  0
   53.0130   17.6040   -3.3830 C   0  0  0  0  0  0  0  0  0  0  0  0
   52.0020   18.2910   -2.6720 C   0  0  0  0  0  0  0  0  0  0  0  0
   52.2870   19.4520   -1.7540 C   0  0  0  0  0  1  0  0  0  0  0  0
   50.6590   17.9020   -2.8240 C   0  0  0  0  0  3  0  0  0  0  0  0
   50.2750   16.8390   -3.6790 C   0  0  0  0  0  0  0  0  0  0  0  0
   51.3100   16.1820   -4.3830 C   0  0  0  0  0  3  0  0  0  0  0  0
   52.6430   16.5580   -4.2360 C   0  0  0  0  0  3  0  0  0  0  0  0
   48.8220   16.4270   -3.8380 C   0  0  0  0  0  0  0  0  0  0  0  0
   48.4590   15.0820   -4.1080 C   0  0  0  0  0  3  0  0  0  0  0  0
   47.1220   14.7060   -4.2570 C   0  0  0  0  0  3  0  0  0  0  0  0
   46.1080   15.6500   -4.1420 C   0  0  0  0  0  3  0  0  0  0  0  0
   46.4250   16.9800   -3.8730 C   0  0  0  0  0  0  0  0  0  0  0  0
   47.7640   17.3660   -3.7260 C   0  0  0  0  0  3  0  0  0  0  0  0
   45.1150   18.2020   -3.7250 S   0  0  0  0  0  0  0  0  0  0  0  0
   45.4170   19.3120   -4.7440 O   0  0  0  0  0  0  0  0  0  0  0  0
   45.3760   18.9970   -2.4370 O   0  0  0  0  0  0  0  0  0  0  0  0
   43.3340   17.8240   -3.8110 C   0  0  0  0  0  2  0  0  0  0  0  0
   42.9730   16.6650   -2.8910 C   0  0  0  0  0  1  0  0  0  0  0  0
   56.3860   17.4140   -4.7950 C   0  0  2  0  0  3  0  0  0  0  0  0
   56.6210   18.9350   -4.7360 C   0  0  0  0  0  0  0  0  0  0  0  0
   57.3850   19.7030   -3.8170 C   0  0  0  0  0  0  0  0  0  0  0  0
   58.2340   19.3060   -2.6500 C   0  0  0  0  0  1  0  0  0  0  0  0
   57.2900   21.3270   -4.2480 S   0  0  0  0  0  0  0  0  0  0  0  0
   56.3340   21.1110   -5.5960 C   0  0  0  0  0  0  0  0  0  0  0  0
   55.8650   22.2080   -6.4950 C   0  0  0  0  0  1  0  0  0  0  0  0
   56.0600   19.7630   -5.7410 C   0  0  0  0  0  3  0  0  0  0  0  0
   56.2690   16.8560   -6.2560 C   0  0  0  0  0  2  0  0  0  0  0  0
   55.4040   15.6070   -6.4750 C   0  0  0  0  0  1  0  0  0  0  0  0
  1 11  1  0  0  0  0
  1  2  1  0  0  0  0
  2  5  1  0  0  0  0
  2  3  2  0  0  0  0
  4  2  2  0  0  0  0
  5  6  2  0  0  0  0
  7  6  1  0  0  0  0
  7  8  1  0  0  0  0
  9  7  1  0  0  0  0
 10  9  2  0  0  0  0
 10  5  1  0  0  0  0
 12 11  1  0  0  0  0
 12 13  1  0  0  0  0
 13 14  1  0  0  0  0
 15 13  2  0  0  0  0
 16 15  1  0  0  0  0
 17 18  1  0  0  0  0
 17 16  2  0  0  0  0
 18 12  2  0  0  0  0
 19 24  1  0  0  0  0
 19 16  1  0  0  0  0
 20 19  2  0  0  0  0
 21 22  2  0  0  0  0
 21 20  1  0  0  0  0
 22 23  1  0  0  0  0
 23 24  2  0  0  0  0
 23 25  1  0  0  0  0
 25 27  2  0  0  0  0
 26 25  2  0  0  0  0
 28 25  1  0  0  0  0
 28 29  1  0  0  0  0
 30 38  1  6  0  0  0
 30 31  1  0  0  0  0
 30  1  1  0  0  0  0
 31 32  2  0  0  0  0
 32 33  1  0  0  0  0
 34 32  1  0  0  0  0
 35 34  1  0  0  0  0
 36 35  1  0  0  0  0
 37 35  2  0  0  0  0
 37 31  1  0  0  0  0
 39 38  1  0  0  0  0
M  END
>  <POSE>
7

>  <SCORE>
-6.592

>  <RMSD_LB_BP>
2.898

>  <RMSD_UB_BP>
5.449

$$$$
/content/4EXS_VS/DOCKING/CLC-0000185/CLC-0000185_output.pdbqt
 OpenBabel03062504413D

 39 42  0  0  1  0  0  0  0  0999 V2000
   56.6970   18.2290   -4.3620 N   0  0  0  0  0  0  0  0  0  0  0  0
   56.0860   19.8860   -4.6700 S   0  0  0  0  0  0  0  0  0  0  0  0
   55.5360   19.9080   -6.1040 O   0  0  0  0  0  0  0  0  0  0  0  0
   57.3650   20.7200   -4.8400 O   0  0  0  0  0  0  0  0  0  0  0  0
   55.0130   20.6910   -3.4770 C   0  0  0  0  0  0  0  0  0  0  0  0
   54.4860   20.1030   -2.3510 C   0  0  0  0  0  3  0  0  0  0  0  0
   53.7440   21.0290   -1.7230 N   0  0  0  0  0  0  0  0  0  0  0  0
   52.9940   20.8660   -0.4850 C   0  0  0  0  0  1  0  0  0  0  0  0
   53.8300   22.1490   -2.4660 C   0  0  0  0  0  3  0  0  0  0  0  0
   54.6060   21.9740   -3.5550 N   0  0  0  0  0  0  0  0  0  0  0  0
   56.0040   17.2960   -5.2830 C   0  0  0  0  0  2  0  0  0  0  0  0
   54.5980   16.9620   -4.8190 C   0  0  0  0  0  0  0  0  0  0  0  0
   53.5080   16.8170   -5.7080 C   0  0  0  0  0  0  0  0  0  0  0  0
   53.6450   16.9430   -7.2040 C   0  0  0  0  0  1  0  0  0  0  0  0
   52.2300   16.5250   -5.1990 C   0  0  0  0  0  3  0  0  0  0  0  0
   51.9920   16.3620   -3.8110 C   0  0  0  0  0  0  0  0  0  0  0  0
   53.1060   16.5020   -2.9520 C   0  0  0  0  0  3  0  0  0  0  0  0
   54.3740   16.7950   -3.4480 C   0  0  0  0  0  3  0  0  0  0  0  0
   50.6080   16.0440   -3.2700 C   0  0  0  0  0  0  0  0  0  0  0  0
   50.3770   14.9100   -2.4480 C   0  0  0  0  0  3  0  0  0  0  0  0
   49.1040   14.6190   -1.9540 C   0  0  0  0  0  3  0  0  0  0  0  0
   48.0250   15.4420   -2.2570 C   0  0  0  0  0  3  0  0  0  0  0  0
   48.2130   16.5670   -3.0580 C   0  0  0  0  0  0  0  0  0  0  0  0
   49.4870   16.8640   -3.5620 C   0  0  0  0  0  3  0  0  0  0  0  0
   46.8190   17.6290   -3.4530 S   0  0  0  0  0  0  0  0  0  0  0  0
   47.2720   18.5660   -4.5840 O   0  0  0  0  0  0  0  0  0  0  0  0
   46.7050   18.6690   -2.3280 O   0  0  0  0  0  0  0  0  0  0  0  0
   45.1440   17.0330   -3.8500 C   0  0  0  0  0  2  0  0  0  0  0  0
   45.1660   15.5670   -4.2630 C   0  0  0  0  0  1  0  0  0  0  0  0
   58.1850   18.0620   -4.3340 C   0  0  2  0  0  3  0  0  0  0  0  0
   58.7310   16.9420   -5.2400 C   0  0  0  0  0  0  0  0  0  0  0  0
   59.2520   17.0120   -6.5590 C   0  0  0  0  0  0  0  0  0  0  0  0
   59.4830   18.1700   -7.4800 C   0  0  0  0  0  1  0  0  0  0  0  0
   59.7100   15.4690   -7.0500 S   0  0  0  0  0  0  0  0  0  0  0  0
   59.3080   14.6900   -5.6320 C   0  0  0  0  0  0  0  0  0  0  0  0
   59.4810   13.2290   -5.3820 C   0  0  0  0  0  1  0  0  0  0  0  0
   58.7990   15.6180   -4.7410 C   0  0  0  0  0  3  0  0  0  0  0  0
   58.8260   18.0770   -2.9020 C   0  0  0  0  0  2  0  0  0  0  0  0
   57.8800   18.1730   -1.6980 C   0  0  0  0  0  1  0  0  0  0  0  0
  1 30  1  0  0  0  0
  2  1  1  0  0  0  0
  2  5  1  0  0  0  0
  3  2  2  0  0  0  0
  4  2  2  0  0  0  0
  5  6  2  0  0  0  0
  6  7  1  0  0  0  0
  7  8  1  0  0  0  0
  9  7  1  0  0  0  0
 10  5  1  0  0  0  0
 10  9  2  0  0  0  0
 11 12  1  0  0  0  0
 11  1  1  0  0  0  0
 12 18  1  0  0  0  0
 13 15  1  0  0  0  0
 13 12  2  0  0  0  0
 14 13  1  0  0  0  0
 15 16  2  0  0  0  0
 16 19  1  0  0  0  0
 16 17  1  0  0  0  0
 18 17  2  0  0  0  0
 19 20  1  0  0  0  0
 20 21  2  0  0  0  0
 22 21  1  0  0  0  0
 23 22  2  0  0  0  0
 24 19  2  0  0  0  0
 24 23  1  0  0  0  0
 25 23  1  0  0  0  0
 25 27  2  0  0  0  0
 26 25  2  0  0  0  0
 28 25  1  0  0  0  0
 29 28  1  0  0  0  0
 30 38  1  1  0  0  0
 31 37  1  0  0  0  0
 31 30  1  0  0  0  0
 32 31  2  0  0  0  0
 33 32  1  0  0  0  0
 34 32  1  0  0  0  0
 34 35  1  0  0  0  0
 35 36  1  0  0  0  0
 35 37  2  0  0  0  0
 38 39  1  0  0  0  0
M  END
>  <POSE>
8

>  <SCORE>
-6.401

>  <RMSD_LB_BP>
2.973

>  <RMSD_UB_BP>
4.956

$$$$
/content/4EXS_VS/DOCKING/CLC-0000185/CLC-0000185_output.pdbqt
 OpenBabel03062504413D

 39 42  0  0  1  0  0  0  0  0999 V2000
   55.1350   17.8350   -3.8850 N   0  0  0  0  0  0  0  0  0  0  0  0
   56.5450   16.8760   -3.3270 S   0  0  0  0  0  0  0  0  0  0  0  0
   56.5600   15.5750   -4.1440 O   0  0  0  0  0  0  0  0  0  0  0  0
   56.1030   16.3480   -1.9530 O   0  0  0  0  0  0  0  0  0  0  0  0
   58.1590   17.6450   -3.1720 C   0  0  0  0  0  0  0  0  0  0  0  0
   59.2310   17.4300   -4.0070 C   0  0  0  0  0  3  0  0  0  0  0  0
   60.2460   18.1880   -3.5610 N   0  0  0  0  0  0  0  0  0  0  0  0
   61.5840   18.2890   -4.1280 C   0  0  0  0  0  1  0  0  0  0  0  0
   59.7820   18.8420   -2.4790 C   0  0  0  0  0  3  0  0  0  0  0  0
   58.4980   18.5290   -2.2120 N   0  0  0  0  0  0  0  0  0  0  0  0
   54.2810   18.1350   -2.7120 C   0  0  0  0  0  2  0  0  0  0  0  0
   52.8250   17.7770   -2.9490 C   0  0  0  0  0  0  0  0  0  0  0  0
   51.7510   18.5480   -2.4470 C   0  0  0  0  0  0  0  0  0  0  0  0
   51.9470   19.8180   -1.6600 C   0  0  0  0  0  1  0  0  0  0  0  0
   50.4280   18.1390   -2.6940 C   0  0  0  0  0  3  0  0  0  0  0  0
   50.1260   16.9750   -3.4420 C   0  0  0  0  0  0  0  0  0  0  0  0
   51.2230   16.2350   -3.9390 C   0  0  0  0  0  3  0  0  0  0  0  0
   52.5370   16.6290   -3.6960 C   0  0  0  0  0  3  0  0  0  0  0  0
   48.6940   16.5420   -3.7060 C   0  0  0  0  0  0  0  0  0  0  0  0
   48.3820   15.2170   -4.1080 C   0  0  0  0  0  3  0  0  0  0  0  0
   47.0660   14.8230   -4.3530 C   0  0  0  0  0  3  0  0  0  0  0  0
   46.0200   15.7280   -4.2040 C   0  0  0  0  0  3  0  0  0  0  0  0
   46.2860   17.0370   -3.8060 C   0  0  0  0  0  0  0  0  0  0  0  0
   47.6060   17.4410   -3.5620 C   0  0  0  0  0  3  0  0  0  0  0  0
   44.9360   18.2080   -3.6150 S   0  0  0  0  0  0  0  0  0  0  0  0
   45.1870   19.3520   -4.6100 O   0  0  0  0  0  0  0  0  0  0  0  0
   45.1840   18.9800   -2.3110 O   0  0  0  0  0  0  0  0  0  0  0  0
   43.1690   17.7700   -3.6920 C   0  0  0  0  0  2  0  0  0  0  0  0
   42.8660   16.5520   -2.8280 C   0  0  0  0  0  1  0  0  0  0  0  0
   55.4370   19.0260   -4.7400 C   0  0  2  0  0  3  0  0  0  0  0  0
   56.2340   18.7210   -6.0230 C   0  0  0  0  0  0  0  0  0  0  0  0
   56.0170   17.7280   -7.0140 C   0  0  0  0  0  0  0  0  0  0  0  0
   54.9460   16.6920   -7.1720 C   0  0  0  0  0  1  0  0  0  0  0  0
   57.2020   17.8700   -8.2010 S   0  0  0  0  0  0  0  0  0  0  0  0
   57.9840   19.1820   -7.5330 C   0  0  0  0  0  0  0  0  0  0  0  0
   59.1800   19.8540   -8.1230 C   0  0  0  0  0  1  0  0  0  0  0  0
   57.3410   19.5380   -6.3610 C   0  0  0  0  0  3  0  0  0  0  0  0
   55.9600   20.2840   -3.9630 C   0  0  0  0  0  2  0  0  0  0  0  0
   54.9990   21.4690   -3.7950 C   0  0  0  0  0  1  0  0  0  0  0  0
  1  2  1  0  0  0  0
  1 11  1  0  0  0  0
  2  5  1  0  0  0  0
  2  4  2  0  0  0  0
  3  2  2  0  0  0  0
  5 10  1  0  0  0  0
  6  7  1  0  0  0  0
  6  5  2  0  0  0  0
  7  9  1  0  0  0  0
  8  7  1  0  0  0  0
  9 10  2  0  0  0  0
 12 11  1  0  0  0  0
 12 13  1  0  0  0  0
 13 14  1  0  0  0  0
 15 13  2  0  0  0  0
 16 15  1  0  0  0  0
 17 18  1  0  0  0  0
 17 16  2  0  0  0  0
 18 12  2  0  0  0  0
 19 24  1  0  0  0  0
 19 16  1  0  0  0  0
 20 19  2  0  0  0  0
 21 22  2  0  0  0  0
 21 20  1  0  0  0  0
 22 23  1  0  0  0  0
 23 25  1  0  0  0  0
 23 24  2  0  0  0  0
 25 27  2  0  0  0  0
 26 25  2  0  0  0  0
 28 25  1  0  0  0  0
 28 29  1  0  0  0  0
 30 38  1  1  0  0  0
 30  1  1  0  0  0  0
 31 30  1  0  0  0  0
 32 31  2  0  0  0  0
 33 32  1  0  0  0  0
 34 35  1  0  0  0  0
 34 32  1  0  0  0  0
 35 37  2  0  0  0  0
 36 35  1  0  0  0  0
 37 31  1  0  0  0  0
 38 39  1  0  0  0  0
M  END
>  <POSE>
9

>  <SCORE>
-6.398

>  <RMSD_LB_BP>
2.775

>  <RMSD_UB_BP>
4.517

$$$$
