MODEL 1
REMARK VINA RESULT:    -7.289      0.000      0.000
REMARK INTER + INTRA:         -13.726
REMARK INTER:                 -11.858
REMARK INTRA:                  -1.868
REMARK UNBOUND:                -2.177
REMARK  10 active torsions:
REMARK  status: ('A' for Active; 'I' for Inactive)
REMARK    1  A    between atoms: C_3  and  C_2 
REMARK    2  A    between atoms: C_3  and  C_5 
REMARK    3  A    between atoms: C_3  and  N_4 
REMARK    4  A    between atoms: S_6  and  N_4 
REMARK    5  A    between atoms: N_4  and  C_7 
REMARK    6  A    between atoms: S_6  and  C_10 
REMARK    7  A    between atoms: C_7  and  C_18 
REMARK    8  A    between atoms: C_28  and  C_29 
REMARK    9  A    between atoms: C_33  and  S_35 
REMARK   10  A    between atoms: S_35  and  C_36 
ROOT
ATOM      1  N   UNL d   1      53.411  17.113  -5.071  0.00  0.00    -0.192 NA
ENDROOT
BRANCH   1   2
ATOM      2  S   UNL d   1      54.113  17.076  -6.722  0.00  0.00     0.263 S 
ATOM      3  O   UNL d   1      52.940  17.018  -7.712  0.00  0.00    -0.204 OA
ATOM      4  O   UNL d   1      54.667  15.648  -6.848  0.00  0.00    -0.204 OA
BRANCH   2   5
ATOM      5  C   UNL d   1      55.390  18.246  -7.189  0.00  0.00     0.183 A 
ATOM      6  C   UNL d   1      56.584  17.927  -7.795  0.00  0.00     0.136 A 
ATOM      7  N   UNL d   1      57.258  19.074  -7.982  0.00  0.00    -0.353 N 
ATOM      8  C   UNL d   1      58.572  19.233  -8.590  0.00  0.00     0.156 C 
ATOM      9  C   UNL d   1      56.476  20.056  -7.495  0.00  0.00     0.210 A 
ATOM     10  N   UNL d   1      55.317  19.578  -6.999  0.00  0.00    -0.229 NA
ENDBRANCH   2   5
ENDBRANCH   1   2
BRANCH   1  11
ATOM     11  C   UNL d   1      52.586  15.895  -4.887  0.00  0.00     0.147 C 
BRANCH  11  12
ATOM     12  C   UNL d   1      51.139  16.220  -4.564  0.00  0.00    -0.038 A 
ATOM     13  C   UNL d   1      50.486  15.752  -3.400  0.00  0.00    -0.054 A 
ATOM     14  C   UNL d   1      51.174  14.918  -2.351  0.00  0.00     0.049 C 
ATOM     15  C   UNL d   1      49.136  16.080  -3.182  0.00  0.00     0.019 A 
ATOM     16  C   UNL d   1      48.398  16.879  -4.091  0.00  0.00    -0.025 A 
ATOM     17  C   UNL d   1      49.085  17.339  -5.237  0.00  0.00     0.013 A 
ATOM     18  C   UNL d   1      50.421  17.015  -5.465  0.00  0.00     0.010 A 
BRANCH  16  19
ATOM     19  C   UNL d   1      46.941  17.231  -3.845  0.00  0.00    -0.025 A 
ATOM     20  C   UNL d   1      46.573  18.379  -3.095  0.00  0.00     0.012 A 
ATOM     21  C   UNL d   1      45.233  18.699  -2.868  0.00  0.00     0.002 A 
ATOM     22  C   UNL d   1      44.220  17.894  -3.379  0.00  0.00     0.023 A 
ATOM     23  C   UNL d   1      44.542  16.761  -4.124  0.00  0.00     0.060 A 
ATOM     24  C   UNL d   1      45.885  16.431  -4.352  0.00  0.00     0.035 A 
BRANCH  23  25
ATOM     25  S   UNL d   1      43.234  15.719  -4.781  0.00  0.00     0.175 S 
ATOM     26  O   UNL d   1      42.809  14.764  -3.655  0.00  0.00    -0.223 OA
ATOM     27  O   UNL d   1      43.895  14.693  -5.714  0.00  0.00    -0.223 OA
BRANCH  25  28
ATOM     28  C   UNL d   1      41.727  16.341  -5.594  0.00  0.00     0.141 C 
ATOM     29  C   UNL d   1      40.501  15.545  -5.164  0.00  0.00     0.021 C 
ENDBRANCH  25  28
ENDBRANCH  23  25
ENDBRANCH  16  19
ENDBRANCH  11  12
ENDBRANCH   1  11
BRANCH   1  30
ATOM     30  C   UNL d   1      54.364  17.378  -3.948  0.00  0.00     0.108 C 
BRANCH  30  31
ATOM     31  C   UNL d   1      55.177  16.154  -3.484  0.00  0.00    -0.026 A 
ATOM     32  C   UNL d   1      56.499  15.758  -3.821  0.00  0.00    -0.013 A 
ATOM     33  C   UNL d   1      57.542  16.397  -4.686  0.00  0.00     0.057 C 
ATOM     34  S   UNL d   1      56.871  14.335  -3.002  0.00  0.00    -0.100 SA
ATOM     35  C   UNL d   1      55.422  14.199  -2.189  0.00  0.00    -0.020 A 
ATOM     36  C   UNL d   1      55.079  13.105  -1.233  0.00  0.00     0.056 C 
ATOM     37  C   UNL d   1      54.608  15.261  -2.542  0.00  0.00     0.024 A 
ENDBRANCH  30  31
BRANCH  30  38
ATOM     38  C   UNL d   1      53.777  18.224  -2.766  0.00  0.00     0.021 C 
ATOM     39  C   UNL d   1      54.766  18.822  -1.756  0.00  0.00     0.007 C 
ENDBRANCH  30  38
ENDBRANCH   1  30
TORSDOF 10
ENDMDL
MODEL 2
REMARK VINA RESULT:    -7.196      1.396      2.780
REMARK INTER + INTRA:         -13.580
REMARK INTER:                 -11.751
REMARK INTRA:                  -1.829
REMARK UNBOUND:                -2.177
REMARK  10 active torsions:
REMARK  status: ('A' for Active; 'I' for Inactive)
REMARK    1  A    between atoms: C_3  and  C_2 
REMARK    2  A    between atoms: C_3  and  C_5 
REMARK    3  A    between atoms: C_3  and  N_4 
REMARK    4  A    between atoms: S_6  and  N_4 
REMARK    5  A    between atoms: N_4  and  C_7 
REMARK    6  A    between atoms: S_6  and  C_10 
REMARK    7  A    between atoms: C_7  and  C_18 
REMARK    8  A    between atoms: C_28  and  C_29 
REMARK    9  A    between atoms: C_33  and  S_35 
REMARK   10  A    between atoms: S_35  and  C_36 
ROOT
ATOM      1  N   UNL d   1      53.542  17.107  -5.046  0.00  0.00    -0.192 NA
ENDROOT
BRANCH   1   2
ATOM      2  S   UNL d   1      54.189  17.143  -6.718  0.00  0.00     0.263 S 
ATOM      3  O   UNL d   1      52.986  17.082  -7.671  0.00  0.00    -0.204 OA
ATOM      4  O   UNL d   1      54.779  15.738  -6.910  0.00  0.00    -0.204 OA
BRANCH   2   5
ATOM      5  C   UNL d   1      55.416  18.366  -7.188  0.00  0.00     0.183 A 
ATOM      6  C   UNL d   1      56.747  18.112  -7.426  0.00  0.00     0.136 A 
ATOM      7  N   UNL d   1      57.327  19.279  -7.752  0.00  0.00    -0.353 N 
ATOM      8  C   UNL d   1      58.726  19.503  -8.090  0.00  0.00     0.156 C 
ATOM      9  C   UNL d   1      56.355  20.209  -7.707  0.00  0.00     0.210 A 
ATOM     10  N   UNL d   1      55.164  19.678  -7.362  0.00  0.00    -0.229 NA
ENDBRANCH   2   5
ENDBRANCH   1   2
BRANCH   1  11
ATOM     11  C   UNL d   1      52.716  15.886  -4.891  0.00  0.00     0.147 C 
BRANCH  11  12
ATOM     12  C   UNL d   1      51.267  16.203  -4.568  0.00  0.00    -0.038 A 
ATOM     13  C   UNL d   1      50.620  15.743  -3.398  0.00  0.00    -0.054 A 
ATOM     14  C   UNL d   1      51.316  14.925  -2.342  0.00  0.00     0.049 C 
ATOM     15  C   UNL d   1      49.268  16.065  -3.179  0.00  0.00     0.019 A 
ATOM     16  C   UNL d   1      48.523  16.849  -4.095  0.00  0.00    -0.025 A 
ATOM     17  C   UNL d   1      49.204  17.302  -5.248  0.00  0.00     0.013 A 
ATOM     18  C   UNL d   1      50.541  16.985  -5.475  0.00  0.00     0.010 A 
BRANCH  16  19
ATOM     19  C   UNL d   1      47.064  17.194  -3.849  0.00  0.00    -0.025 A 
ATOM     20  C   UNL d   1      46.690  18.338  -3.097  0.00  0.00     0.012 A 
ATOM     21  C   UNL d   1      45.349  18.652  -2.870  0.00  0.00     0.002 A 
ATOM     22  C   UNL d   1      44.340  17.843  -3.382  0.00  0.00     0.023 A 
ATOM     23  C   UNL d   1      44.668  16.713  -4.129  0.00  0.00     0.060 A 
ATOM     24  C   UNL d   1      46.012  16.389  -4.358  0.00  0.00     0.035 A 
BRANCH  23  25
ATOM     25  S   UNL d   1      43.365  15.666  -4.789  0.00  0.00     0.175 S 
ATOM     26  O   UNL d   1      42.947  14.703  -3.666  0.00  0.00    -0.223 OA
ATOM     27  O   UNL d   1      44.030  14.647  -5.727  0.00  0.00    -0.223 OA
BRANCH  25  28
ATOM     28  C   UNL d   1      41.852  16.281  -5.597  0.00  0.00     0.141 C 
ATOM     29  C   UNL d   1      40.604  15.780  -4.882  0.00  0.00     0.021 C 
ENDBRANCH  25  28
ENDBRANCH  23  25
ENDBRANCH  16  19
ENDBRANCH  11  12
ENDBRANCH   1  11
BRANCH   1  30
ATOM     30  C   UNL d   1      54.533  17.314  -3.944  0.00  0.00     0.108 C 
BRANCH  30  31
ATOM     31  C   UNL d   1      54.724  18.780  -3.509  0.00  0.00    -0.026 A 
ATOM     32  C   UNL d   1      53.905  19.599  -2.686  0.00  0.00    -0.013 A 
ATOM     33  C   UNL d   1      52.634  19.316  -1.946  0.00  0.00     0.057 C 
ATOM     34  S   UNL d   1      54.617  21.117  -2.544  0.00  0.00    -0.100 SA
ATOM     35  C   UNL d   1      55.966  20.783  -3.464  0.00  0.00    -0.020 A 
ATOM     36  C   UNL d   1      57.069  21.749  -3.745  0.00  0.00     0.056 C 
ATOM     37  C   UNL d   1      55.891  19.476  -3.911  0.00  0.00     0.024 A 
ENDBRANCH  30  31
BRANCH  30  38
ATOM     38  C   UNL d   1      55.881  16.530  -4.108  0.00  0.00     0.021 C 
ATOM     39  C   UNL d   1      55.975  15.133  -3.478  0.00  0.00     0.007 C 
ENDBRANCH  30  38
ENDBRANCH   1  30
TORSDOF 10
ENDMDL
MODEL 3
REMARK VINA RESULT:    -7.160      2.450      3.178
REMARK INTER + INTRA:         -13.523
REMARK INTER:                 -11.155
REMARK INTRA:                  -2.368
REMARK UNBOUND:                -2.177
REMARK  10 active torsions:
REMARK  status: ('A' for Active; 'I' for Inactive)
REMARK    1  A    between atoms: C_3  and  C_2 
REMARK    2  A    between atoms: C_3  and  C_5 
REMARK    3  A    between atoms: C_3  and  N_4 
REMARK    4  A    between atoms: S_6  and  N_4 
REMARK    5  A    between atoms: N_4  and  C_7 
REMARK    6  A    between atoms: S_6  and  C_10 
REMARK    7  A    between atoms: C_7  and  C_18 
REMARK    8  A    between atoms: C_28  and  C_29 
REMARK    9  A    between atoms: C_33  and  S_35 
REMARK   10  A    between atoms: S_35  and  C_36 
ROOT
ATOM      1  N   UNL d   1      54.849  18.527  -3.072  0.00  0.00    -0.192 NA
ENDROOT
BRANCH   1   2
ATOM      2  S   UNL d   1      55.544  19.787  -4.143  0.00  0.00     0.263 S 
ATOM      3  O   UNL d   1      56.711  20.434  -3.383  0.00  0.00    -0.204 OA
ATOM      4  O   UNL d   1      54.505  20.918  -4.093  0.00  0.00    -0.204 OA
BRANCH   2   5
ATOM      5  C   UNL d   1      55.923  19.411  -5.856  0.00  0.00     0.183 A 
ATOM      6  C   UNL d   1      57.008  18.687  -6.295  0.00  0.00     0.136 A 
ATOM      7  N   UNL d   1      56.935  18.624  -7.634  0.00  0.00    -0.353 N 
ATOM      8  C   UNL d   1      57.865  17.959  -8.537  0.00  0.00     0.156 C 
ATOM      9  C   UNL d   1      55.824  19.299  -7.983  0.00  0.00     0.210 A 
ATOM     10  N   UNL d   1      55.177  19.797  -6.910  0.00  0.00    -0.229 NA
ENDBRANCH   2   5
ENDBRANCH   1   2
BRANCH   1  11
ATOM     11  C   UNL d   1      54.604  17.309  -3.882  0.00  0.00     0.147 C 
BRANCH  11  12
ATOM     12  C   UNL d   1      53.125  16.995  -4.021  0.00  0.00    -0.038 A 
ATOM     13  C   UNL d   1      52.510  16.723  -5.264  0.00  0.00    -0.054 A 
ATOM     14  C   UNL d   1      53.268  16.683  -6.566  0.00  0.00     0.049 C 
ATOM     15  C   UNL d   1      51.129  16.458  -5.313  0.00  0.00     0.019 A 
ATOM     16  C   UNL d   1      50.323  16.446  -4.148  0.00  0.00    -0.025 A 
ATOM     17  C   UNL d   1      50.973  16.710  -2.920  0.00  0.00     0.013 A 
ATOM     18  C   UNL d   1      52.339  16.977  -2.863  0.00  0.00     0.010 A 
BRANCH  16  19
ATOM     19  C   UNL d   1      48.833  16.157  -4.210  0.00  0.00    -0.025 A 
ATOM     20  C   UNL d   1      48.342  14.861  -4.520  0.00  0.00     0.012 A 
ATOM     21  C   UNL d   1      46.972  14.598  -4.579  0.00  0.00     0.002 A 
ATOM     22  C   UNL d   1      46.049  15.609  -4.330  0.00  0.00     0.023 A 
ATOM     23  C   UNL d   1      46.493  16.892  -4.018  0.00  0.00     0.060 A 
ATOM     24  C   UNL d   1      47.867  17.166  -3.961  0.00  0.00     0.035 A 
BRANCH  23  25
ATOM     25  S   UNL d   1      45.302  18.199  -3.699  0.00  0.00     0.175 S 
ATOM     26  O   UNL d   1      45.706  19.400  -4.568  0.00  0.00    -0.223 OA
ATOM     27  O   UNL d   1      45.634  18.793  -2.321  0.00  0.00    -0.223 OA
BRANCH  25  28
ATOM     28  C   UNL d   1      43.494  18.001  -3.813  0.00  0.00     0.141 C 
ATOM     29  C   UNL d   1      43.014  16.836  -2.958  0.00  0.00     0.021 C 
ENDBRANCH  25  28
ENDBRANCH  23  25
ENDBRANCH  16  19
ENDBRANCH  11  12
ENDBRANCH   1  11
BRANCH   1  30
ATOM     30  C   UNL d   1      55.576  18.268  -1.790  0.00  0.00     0.108 C 
BRANCH  30  31
ATOM     31  C   UNL d   1      56.350  16.937  -1.738  0.00  0.00    -0.026 A 
ATOM     32  C   UNL d   1      57.589  16.581  -2.336  0.00  0.00    -0.013 A 
ATOM     33  C   UNL d   1      58.559  17.367  -3.164  0.00  0.00     0.057 C 
ATOM     34  S   UNL d   1      57.956  14.990  -1.930  0.00  0.00    -0.100 SA
ATOM     35  C   UNL d   1      56.613  14.721  -0.980  0.00  0.00    -0.020 A 
ATOM     36  C   UNL d   1      56.314  13.444  -0.267  0.00  0.00     0.056 C 
ATOM     37  C   UNL d   1      55.840  15.868  -0.961  0.00  0.00     0.024 A 
ENDBRANCH  30  31
BRANCH  30  38
ATOM     38  C   UNL d   1      54.750  18.562  -0.489  0.00  0.00     0.021 C 
ATOM     39  C   UNL d   1      53.794  19.762  -0.507  0.00  0.00     0.007 C 
ENDBRANCH  30  38
ENDBRANCH   1  30
TORSDOF 10
ENDMDL
MODEL 4
REMARK VINA RESULT:    -6.901      2.808      3.520
REMARK INTER + INTRA:         -13.112
REMARK INTER:                 -11.423
REMARK INTRA:                  -1.689
REMARK UNBOUND:                -2.177
REMARK  10 active torsions:
REMARK  status: ('A' for Active; 'I' for Inactive)
REMARK    1  A    between atoms: C_3  and  C_2 
REMARK    2  A    between atoms: C_3  and  C_5 
REMARK    3  A    between atoms: C_3  and  N_4 
REMARK    4  A    between atoms: S_6  and  N_4 
REMARK    5  A    between atoms: N_4  and  C_7 
REMARK    6  A    between atoms: S_6  and  C_10 
REMARK    7  A    between atoms: C_7  and  C_18 
REMARK    8  A    between atoms: C_28  and  C_29 
REMARK    9  A    between atoms: C_33  and  S_35 
REMARK   10  A    between atoms: S_35  and  C_36 
ROOT
ATOM      1  N   UNL d   1      54.552  17.138  -2.498  0.00  0.00    -0.192 NA
ENDROOT
BRANCH   1   2
ATOM      2  S   UNL d   1      54.620  18.924  -2.354  0.00  0.00     0.263 S 
ATOM      3  O   UNL d   1      54.411  19.267  -0.871  0.00  0.00    -0.204 OA
ATOM      4  O   UNL d   1      53.281  19.388  -2.949  0.00  0.00    -0.204 OA
BRANCH   2   5
ATOM      5  C   UNL d   1      55.956  19.844  -3.122  0.00  0.00     0.183 A 
ATOM      6  C   UNL d   1      57.196  19.339  -3.438  0.00  0.00     0.136 A 
ATOM      7  N   UNL d   1      57.905  20.334  -3.997  0.00  0.00    -0.353 N 
ATOM      8  C   UNL d   1      59.273  20.270  -4.492  0.00  0.00     0.156 C 
ATOM      9  C   UNL d   1      57.097  21.410  -4.012  0.00  0.00     0.210 A 
ATOM     10  N   UNL d   1      55.887  21.142  -3.480  0.00  0.00    -0.229 NA
ENDBRANCH   2   5
ENDBRANCH   1   2
BRANCH   1  11
ATOM     11  C   UNL d   1      54.165  16.796  -3.888  0.00  0.00     0.147 C 
BRANCH  11  12
ATOM     12  C   UNL d   1      52.669  16.585  -4.037  0.00  0.00    -0.038 A 
ATOM     13  C   UNL d   1      52.000  16.668  -5.280  0.00  0.00    -0.054 A 
ATOM     14  C   UNL d   1      52.712  16.937  -6.581  0.00  0.00     0.049 C 
ATOM     15  C   UNL d   1      50.607  16.478  -5.334  0.00  0.00     0.019 A 
ATOM     16  C   UNL d   1      49.841  16.196  -4.176  0.00  0.00    -0.025 A 
ATOM     17  C   UNL d   1      50.543  16.108  -2.952  0.00  0.00     0.013 A 
ATOM     18  C   UNL d   1      51.922  16.299  -2.889  0.00  0.00     0.010 A 
BRANCH  16  19
ATOM     19  C   UNL d   1      48.337  15.990  -4.243  0.00  0.00    -0.025 A 
ATOM     20  C   UNL d   1      47.777  14.735  -4.597  0.00  0.00     0.012 A 
ATOM     21  C   UNL d   1      46.395  14.548  -4.662  0.00  0.00     0.002 A 
ATOM     22  C   UNL d   1      45.528  15.598  -4.375  0.00  0.00     0.023 A 
ATOM     23  C   UNL d   1      46.041  16.844  -4.019  0.00  0.00     0.060 A 
ATOM     24  C   UNL d   1      47.427  17.040  -3.957  0.00  0.00     0.035 A 
BRANCH  23  25
ATOM     25  S   UNL d   1      44.922  18.201  -3.651  0.00  0.00     0.175 S 
ATOM     26  O   UNL d   1      45.197  19.305  -4.684  0.00  0.00    -0.223 OA
ATOM     27  O   UNL d   1      45.466  18.915  -2.404  0.00  0.00    -0.223 OA
BRANCH  25  28
ATOM     28  C   UNL d   1      43.117  18.034  -3.470  0.00  0.00     0.141 C 
ATOM     29  C   UNL d   1      42.466  17.643  -4.790  0.00  0.00     0.021 C 
ENDBRANCH  25  28
ENDBRANCH  23  25
ENDBRANCH  16  19
ENDBRANCH  11  12
ENDBRANCH   1  11
BRANCH   1  30
ATOM     30  C   UNL d   1      55.743  16.383  -1.996  0.00  0.00     0.108 C 
BRANCH  30  31
ATOM     31  C   UNL d   1      55.758  14.883  -2.348  0.00  0.00    -0.026 A 
ATOM     32  C   UNL d   1      56.576  14.172  -3.267  0.00  0.00    -0.013 A 
ATOM     33  C   UNL d   1      57.699  14.616  -4.152  0.00  0.00     0.057 C 
ATOM     34  S   UNL d   1      56.154  12.543  -3.229  0.00  0.00    -0.100 SA
ATOM     35  C   UNL d   1      54.980  12.677  -2.053  0.00  0.00    -0.020 A 
ATOM     36  C   UNL d   1      54.177  11.539  -1.515  0.00  0.00     0.056 C 
ATOM     37  C   UNL d   1      54.884  14.001  -1.665  0.00  0.00     0.024 A 
ENDBRANCH  30  31
BRANCH  30  38
ATOM     38  C   UNL d   1      56.135  16.679  -0.506  0.00  0.00     0.021 C 
ATOM     39  C   UNL d   1      57.455  17.419  -0.250  0.00  0.00     0.007 C 
ENDBRANCH  30  38
ENDBRANCH   1  30
TORSDOF 10
ENDMDL
MODEL 5
REMARK VINA RESULT:    -6.850      2.672      3.676
REMARK INTER + INTRA:         -13.031
REMARK INTER:                 -11.373
REMARK INTRA:                  -1.658
REMARK UNBOUND:                -2.177
REMARK  10 active torsions:
REMARK  status: ('A' for Active; 'I' for Inactive)
REMARK    1  A    between atoms: C_3  and  C_2 
REMARK    2  A    between atoms: C_3  and  C_5 
REMARK    3  A    between atoms: C_3  and  N_4 
REMARK    4  A    between atoms: S_6  and  N_4 
REMARK    5  A    between atoms: N_4  and  C_7 
REMARK    6  A    between atoms: S_6  and  C_10 
REMARK    7  A    between atoms: C_7  and  C_18 
REMARK    8  A    between atoms: C_28  and  C_29 
REMARK    9  A    between atoms: C_33  and  S_35 
REMARK   10  A    between atoms: S_35  and  C_36 
ROOT
ATOM      1  N   UNL d   1      54.297  17.068  -2.528  0.00  0.00    -0.192 NA
ENDROOT
BRANCH   1   2
ATOM      2  S   UNL d   1      54.318  18.854  -2.362  0.00  0.00     0.263 S 
ATOM      3  O   UNL d   1      54.929  19.175  -0.990  0.00  0.00    -0.204 OA
ATOM      4  O   UNL d   1      52.845  19.213  -2.113  0.00  0.00    -0.204 OA
BRANCH   2   5
ATOM      5  C   UNL d   1      54.957  19.878  -3.690  0.00  0.00     0.183 A 
ATOM      6  C   UNL d   1      55.933  19.508  -4.587  0.00  0.00     0.136 A 
ATOM      7  N   UNL d   1      56.128  20.544  -5.419  0.00  0.00    -0.353 N 
ATOM      8  C   UNL d   1      57.064  20.615  -6.533  0.00  0.00     0.156 C 
ATOM      9  C   UNL d   1      55.280  21.512  -5.022  0.00  0.00     0.210 A 
ATOM     10  N   UNL d   1      54.544  21.133  -3.957  0.00  0.00    -0.229 NA
ENDBRANCH   2   5
ENDBRANCH   1   2
BRANCH   1  11
ATOM     11  C   UNL d   1      53.905  16.732  -3.917  0.00  0.00     0.147 C 
BRANCH  11  12
ATOM     12  C   UNL d   1      52.408  16.527  -4.063  0.00  0.00    -0.038 A 
ATOM     13  C   UNL d   1      51.729  16.658  -5.296  0.00  0.00    -0.054 A 
ATOM     14  C   UNL d   1      52.431  16.979  -6.591  0.00  0.00     0.049 C 
ATOM     15  C   UNL d   1      50.336  16.470  -5.346  0.00  0.00     0.019 A 
ATOM     16  C   UNL d   1      49.579  16.142  -4.194  0.00  0.00    -0.025 A 
ATOM     17  C   UNL d   1      50.291  16.006  -2.981  0.00  0.00     0.013 A 
ATOM     18  C   UNL d   1      51.670  16.195  -2.921  0.00  0.00     0.010 A 
BRANCH  16  19
ATOM     19  C   UNL d   1      48.074  15.938  -4.258  0.00  0.00    -0.025 A 
ATOM     20  C   UNL d   1      47.512  14.684  -4.612  0.00  0.00     0.012 A 
ATOM     21  C   UNL d   1      46.129  14.500  -4.673  0.00  0.00     0.002 A 
ATOM     22  C   UNL d   1      45.265  15.550  -4.383  0.00  0.00     0.023 A 
ATOM     23  C   UNL d   1      45.780  16.795  -4.027  0.00  0.00     0.060 A 
ATOM     24  C   UNL d   1      47.167  16.990  -3.968  0.00  0.00     0.035 A 
BRANCH  23  25
ATOM     25  S   UNL d   1      44.664  18.154  -3.655  0.00  0.00     0.175 S 
ATOM     26  O   UNL d   1      44.964  19.274  -4.664  0.00  0.00    -0.223 OA
ATOM     27  O   UNL d   1      45.192  18.842  -2.386  0.00  0.00    -0.223 OA
BRANCH  25  28
ATOM     28  C   UNL d   1      42.855  17.996  -3.507  0.00  0.00     0.141 C 
ATOM     29  C   UNL d   1      42.218  17.696  -4.857  0.00  0.00     0.021 C 
ENDBRANCH  25  28
ENDBRANCH  23  25
ENDBRANCH  16  19
ENDBRANCH  11  12
ENDBRANCH   1  11
BRANCH   1  30
ATOM     30  C   UNL d   1      55.513  16.340  -2.046  0.00  0.00     0.108 C 
BRANCH  30  31
ATOM     31  C   UNL d   1      56.752  16.473  -2.952  0.00  0.00    -0.026 A 
ATOM     32  C   UNL d   1      57.897  17.302  -2.814  0.00  0.00    -0.013 A 
ATOM     33  C   UNL d   1      58.302  18.273  -1.748  0.00  0.00     0.057 C 
ATOM     34  S   UNL d   1      58.939  17.017  -4.104  0.00  0.00    -0.100 SA
ATOM     35  C   UNL d   1      58.015  15.841  -4.840  0.00  0.00    -0.020 A 
ATOM     36  C   UNL d   1      58.389  15.121  -6.093  0.00  0.00     0.056 C 
ATOM     37  C   UNL d   1      56.865  15.645  -4.097  0.00  0.00     0.024 A 
ENDBRANCH  30  31
BRANCH  30  38
ATOM     38  C   UNL d   1      55.255  14.875  -1.549  0.00  0.00     0.021 C 
ATOM     39  C   UNL d   1      56.359  14.196  -0.727  0.00  0.00     0.007 C 
ENDBRANCH  30  38
ENDBRANCH   1  30
TORSDOF 10
ENDMDL
MODEL 6
REMARK VINA RESULT:    -6.785      2.883      4.606
REMARK INTER + INTRA:         -12.928
REMARK INTER:                 -11.220
REMARK INTRA:                  -1.708
REMARK UNBOUND:                -2.177
REMARK  10 active torsions:
REMARK  status: ('A' for Active; 'I' for Inactive)
REMARK    1  A    between atoms: C_3  and  C_2 
REMARK    2  A    between atoms: C_3  and  C_5 
REMARK    3  A    between atoms: C_3  and  N_4 
REMARK    4  A    between atoms: S_6  and  N_4 
REMARK    5  A    between atoms: N_4  and  C_7 
REMARK    6  A    between atoms: S_6  and  C_10 
REMARK    7  A    between atoms: C_7  and  C_18 
REMARK    8  A    between atoms: C_28  and  C_29 
REMARK    9  A    between atoms: C_33  and  S_35 
REMARK   10  A    between atoms: S_35  and  C_36 
ROOT
ATOM      1  N   UNL d   1      55.490  17.581  -3.294  0.00  0.00    -0.192 NA
ENDROOT
BRANCH   1   2
ATOM      2  S   UNL d   1      55.409  19.361  -3.502  0.00  0.00     0.263 S 
ATOM      3  O   UNL d   1      55.168  19.632  -4.994  0.00  0.00    -0.204 OA
ATOM      4  O   UNL d   1      56.872  19.810  -3.360  0.00  0.00    -0.204 OA
BRANCH   2   5
ATOM      5  C   UNL d   1      54.381  20.353  -2.416  0.00  0.00     0.183 A 
ATOM      6  C   UNL d   1      53.729  19.896  -1.294  0.00  0.00     0.136 A 
ATOM      7  N   UNL d   1      53.072  20.938  -0.758  0.00  0.00    -0.353 N 
ATOM      8  C   UNL d   1      52.244  20.935   0.440  0.00  0.00     0.156 C 
ATOM      9  C   UNL d   1      53.332  21.995  -1.550  0.00  0.00     0.210 A 
ATOM     10  N   UNL d   1      54.137  21.668  -2.581  0.00  0.00    -0.229 NA
ENDBRANCH   2   5
ENDBRANCH   1   2
BRANCH   1  11
ATOM     11  C   UNL d   1      54.976  16.943  -4.529  0.00  0.00     0.147 C 
BRANCH  11  12
ATOM     12  C   UNL d   1      53.478  16.705  -4.478  0.00  0.00    -0.038 A 
ATOM     13  C   UNL d   1      52.649  16.766  -5.621  0.00  0.00    -0.054 A 
ATOM     14  C   UNL d   1      53.178  17.038  -7.006  0.00  0.00     0.049 C 
ATOM     15  C   UNL d   1      51.265  16.552  -5.489  0.00  0.00     0.019 A 
ATOM     16  C   UNL d   1      50.664  16.266  -4.238  0.00  0.00    -0.025 A 
ATOM     17  C   UNL d   1      51.523  16.200  -3.118  0.00  0.00     0.013 A 
ATOM     18  C   UNL d   1      52.894  16.415  -3.239  0.00  0.00     0.010 A 
BRANCH  16  19
ATOM     19  C   UNL d   1      49.168  16.033  -4.105  0.00  0.00    -0.025 A 
ATOM     20  C   UNL d   1      48.617  14.726  -4.132  0.00  0.00     0.012 A 
ATOM     21  C   UNL d   1      47.242  14.514  -4.012  0.00  0.00     0.002 A 
ATOM     22  C   UNL d   1      46.374  15.591  -3.860  0.00  0.00     0.023 A 
ATOM     23  C   UNL d   1      46.879  16.889  -3.825  0.00  0.00     0.060 A 
ATOM     24  C   UNL d   1      48.257  17.110  -3.949  0.00  0.00     0.035 A 
BRANCH  23  25
ATOM     25  S   UNL d   1      45.758  18.281  -3.632  0.00  0.00     0.175 S 
ATOM     26  O   UNL d   1      46.239  19.384  -4.588  0.00  0.00    -0.223 OA
ATOM     27  O   UNL d   1      46.107  18.965  -2.301  0.00  0.00    -0.223 OA
BRANCH  25  28
ATOM     28  C   UNL d   1      43.944  18.174  -3.760  0.00  0.00     0.141 C 
ATOM     29  C   UNL d   1      43.512  16.830  -4.333  0.00  0.00     0.021 C 
ENDBRANCH  25  28
ENDBRANCH  23  25
ENDBRANCH  16  19
ENDBRANCH  11  12
ENDBRANCH   1  11
BRANCH   1  30
ATOM     30  C   UNL d   1      56.796  17.025  -2.819  0.00  0.00     0.108 C 
BRANCH  30  31
ATOM     31  C   UNL d   1      57.047  15.551  -3.190  0.00  0.00    -0.026 A 
ATOM     32  C   UNL d   1      56.392  14.374  -2.738  0.00  0.00    -0.013 A 
ATOM     33  C   UNL d   1      55.238  14.171  -1.805  0.00  0.00     0.057 C 
ATOM     34  S   UNL d   1      57.083  13.038  -3.492  0.00  0.00    -0.100 SA
ATOM     35  C   UNL d   1      58.179  13.886  -4.417  0.00  0.00    -0.020 A 
ATOM     36  C   UNL d   1      59.147  13.271  -5.374  0.00  0.00     0.056 C 
ATOM     37  C   UNL d   1      58.036  15.237  -4.155  0.00  0.00     0.024 A 
ENDBRANCH  30  31
BRANCH  30  38
ATOM     38  C   UNL d   1      57.162  17.367  -1.333  0.00  0.00     0.021 C 
ATOM     39  C   UNL d   1      58.608  17.783  -1.032  0.00  0.00     0.007 C 
ENDBRANCH  30  38
ENDBRANCH   1  30
TORSDOF 10
ENDMDL
MODEL 7
REMARK VINA RESULT:    -6.592      2.898      5.449
REMARK INTER + INTRA:         -12.623
REMARK INTER:                 -10.530
REMARK INTRA:                  -2.093
REMARK UNBOUND:                -2.177
REMARK  10 active torsions:
REMARK  status: ('A' for Active; 'I' for Inactive)
REMARK    1  A    between atoms: C_3  and  C_2 
REMARK    2  A    between atoms: C_3  and  C_5 
REMARK    3  A    between atoms: C_3  and  N_4 
REMARK    4  A    between atoms: S_6  and  N_4 
REMARK    5  A    between atoms: N_4  and  C_7 
REMARK    6  A    between atoms: S_6  and  C_10 
REMARK    7  A    between atoms: C_7  and  C_18 
REMARK    8  A    between atoms: C_28  and  C_29 
REMARK    9  A    between atoms: C_33  and  S_35 
REMARK   10  A    between atoms: S_35  and  C_36 
ROOT
ATOM      1  N   UNL d   1      55.361  16.895  -3.836  0.00  0.00    -0.192 NA
ENDROOT
BRANCH   1   2
ATOM      2  S   UNL d   1      55.969  15.871  -2.495  0.00  0.00     0.263 S 
ATOM      3  O   UNL d   1      55.733  16.645  -1.190  0.00  0.00    -0.204 OA
ATOM      4  O   UNL d   1      57.497  15.978  -2.620  0.00  0.00    -0.204 OA
BRANCH   2   5
ATOM      5  C   UNL d   1      55.507  14.139  -2.397  0.00  0.00     0.183 A 
ATOM      6  C   UNL d   1      54.377  13.647  -1.786  0.00  0.00     0.136 A 
ATOM      7  N   UNL d   1      54.391  12.312  -1.931  0.00  0.00    -0.353 N 
ATOM      8  C   UNL d   1      53.397  11.363  -1.447  0.00  0.00     0.156 C 
ATOM      9  C   UNL d   1      55.512  12.018  -2.616  0.00  0.00     0.210 A 
ATOM     10  N   UNL d   1      56.222  13.124  -2.919  0.00  0.00    -0.229 NA
ENDBRANCH   2   5
ENDBRANCH   1   2
BRANCH   1  11
ATOM     11  C   UNL d   1      54.487  17.946  -3.262  0.00  0.00     0.147 C 
BRANCH  11  12
ATOM     12  C   UNL d   1      53.013  17.604  -3.383  0.00  0.00    -0.038 A 
ATOM     13  C   UNL d   1      52.002  18.291  -2.672  0.00  0.00    -0.054 A 
ATOM     14  C   UNL d   1      52.287  19.452  -1.754  0.00  0.00     0.049 C 
ATOM     15  C   UNL d   1      50.659  17.902  -2.824  0.00  0.00     0.019 A 
ATOM     16  C   UNL d   1      50.275  16.839  -3.679  0.00  0.00    -0.025 A 
ATOM     17  C   UNL d   1      51.310  16.182  -4.383  0.00  0.00     0.013 A 
ATOM     18  C   UNL d   1      52.643  16.558  -4.236  0.00  0.00     0.010 A 
BRANCH  16  19
ATOM     19  C   UNL d   1      48.822  16.427  -3.838  0.00  0.00    -0.025 A 
ATOM     20  C   UNL d   1      48.459  15.082  -4.108  0.00  0.00     0.012 A 
ATOM     21  C   UNL d   1      47.122  14.706  -4.257  0.00  0.00     0.002 A 
ATOM     22  C   UNL d   1      46.108  15.650  -4.142  0.00  0.00     0.023 A 
ATOM     23  C   UNL d   1      46.425  16.980  -3.873  0.00  0.00     0.060 A 
ATOM     24  C   UNL d   1      47.764  17.366  -3.726  0.00  0.00     0.035 A 
BRANCH  23  25
ATOM     25  S   UNL d   1      45.115  18.202  -3.725  0.00  0.00     0.175 S 
ATOM     26  O   UNL d   1      45.417  19.312  -4.744  0.00  0.00    -0.223 OA
ATOM     27  O   UNL d   1      45.376  18.997  -2.437  0.00  0.00    -0.223 OA
BRANCH  25  28
ATOM     28  C   UNL d   1      43.334  17.824  -3.811  0.00  0.00     0.141 C 
ATOM     29  C   UNL d   1      42.973  16.665  -2.891  0.00  0.00     0.021 C 
ENDBRANCH  25  28
ENDBRANCH  23  25
ENDBRANCH  16  19
ENDBRANCH  11  12
ENDBRANCH   1  11
BRANCH   1  30
ATOM     30  C   UNL d   1      56.386  17.414  -4.795  0.00  0.00     0.108 C 
BRANCH  30  31
ATOM     31  C   UNL d   1      56.621  18.935  -4.736  0.00  0.00    -0.026 A 
ATOM     32  C   UNL d   1      57.385  19.703  -3.817  0.00  0.00    -0.013 A 
ATOM     33  C   UNL d   1      58.234  19.306  -2.650  0.00  0.00     0.057 C 
ATOM     34  S   UNL d   1      57.290  21.327  -4.248  0.00  0.00    -0.100 SA
ATOM     35  C   UNL d   1      56.334  21.111  -5.596  0.00  0.00    -0.020 A 
ATOM     36  C   UNL d   1      55.865  22.208  -6.495  0.00  0.00     0.056 C 
ATOM     37  C   UNL d   1      56.060  19.763  -5.741  0.00  0.00     0.024 A 
ENDBRANCH  30  31
BRANCH  30  38
ATOM     38  C   UNL d   1      56.269  16.856  -6.256  0.00  0.00     0.021 C 
ATOM     39  C   UNL d   1      55.404  15.607  -6.475  0.00  0.00     0.007 C 
ENDBRANCH  30  38
ENDBRANCH   1  30
TORSDOF 10
ENDMDL
MODEL 8
REMARK VINA RESULT:    -6.401      2.973      4.956
REMARK INTER + INTRA:         -12.320
REMARK INTER:                 -10.339
REMARK INTRA:                  -1.981
REMARK UNBOUND:                -2.177
REMARK  10 active torsions:
REMARK  status: ('A' for Active; 'I' for Inactive)
REMARK    1  A    between atoms: C_3  and  C_2 
REMARK    2  A    between atoms: C_3  and  C_5 
REMARK    3  A    between atoms: C_3  and  N_4 
REMARK    4  A    between atoms: S_6  and  N_4 
REMARK    5  A    between atoms: N_4  and  C_7 
REMARK    6  A    between atoms: S_6  and  C_10 
REMARK    7  A    between atoms: C_7  and  C_18 
REMARK    8  A    between atoms: C_28  and  C_29 
REMARK    9  A    between atoms: C_33  and  S_35 
REMARK   10  A    between atoms: S_35  and  C_36 
ROOT
ATOM      1  N   UNL d   1      56.697  18.229  -4.362  0.00  0.00    -0.192 NA
ENDROOT
BRANCH   1   2
ATOM      2  S   UNL d   1      56.086  19.886  -4.670  0.00  0.00     0.263 S 
ATOM      3  O   UNL d   1      55.536  19.908  -6.104  0.00  0.00    -0.204 OA
ATOM      4  O   UNL d   1      57.365  20.720  -4.840  0.00  0.00    -0.204 OA
BRANCH   2   5
ATOM      5  C   UNL d   1      55.013  20.691  -3.477  0.00  0.00     0.183 A 
ATOM      6  C   UNL d   1      54.486  20.103  -2.351  0.00  0.00     0.136 A 
ATOM      7  N   UNL d   1      53.744  21.029  -1.723  0.00  0.00    -0.353 N 
ATOM      8  C   UNL d   1      52.994  20.866  -0.485  0.00  0.00     0.156 C 
ATOM      9  C   UNL d   1      53.830  22.149  -2.466  0.00  0.00     0.210 A 
ATOM     10  N   UNL d   1      54.606  21.974  -3.555  0.00  0.00    -0.229 NA
ENDBRANCH   2   5
ENDBRANCH   1   2
BRANCH   1  11
ATOM     11  C   UNL d   1      56.004  17.296  -5.283  0.00  0.00     0.147 C 
BRANCH  11  12
ATOM     12  C   UNL d   1      54.598  16.962  -4.819  0.00  0.00    -0.038 A 
ATOM     13  C   UNL d   1      53.508  16.817  -5.708  0.00  0.00    -0.054 A 
ATOM     14  C   UNL d   1      53.645  16.943  -7.204  0.00  0.00     0.049 C 
ATOM     15  C   UNL d   1      52.230  16.525  -5.199  0.00  0.00     0.019 A 
ATOM     16  C   UNL d   1      51.992  16.362  -3.811  0.00  0.00    -0.025 A 
ATOM     17  C   UNL d   1      53.106  16.502  -2.952  0.00  0.00     0.013 A 
ATOM     18  C   UNL d   1      54.374  16.795  -3.448  0.00  0.00     0.010 A 
BRANCH  16  19
ATOM     19  C   UNL d   1      50.608  16.044  -3.270  0.00  0.00    -0.025 A 
ATOM     20  C   UNL d   1      50.377  14.910  -2.448  0.00  0.00     0.012 A 
ATOM     21  C   UNL d   1      49.104  14.619  -1.954  0.00  0.00     0.002 A 
ATOM     22  C   UNL d   1      48.025  15.442  -2.257  0.00  0.00     0.023 A 
ATOM     23  C   UNL d   1      48.213  16.567  -3.058  0.00  0.00     0.060 A 
ATOM     24  C   UNL d   1      49.487  16.864  -3.562  0.00  0.00     0.035 A 
BRANCH  23  25
ATOM     25  S   UNL d   1      46.819  17.629  -3.453  0.00  0.00     0.175 S 
ATOM     26  O   UNL d   1      47.272  18.566  -4.584  0.00  0.00    -0.223 OA
ATOM     27  O   UNL d   1      46.705  18.669  -2.328  0.00  0.00    -0.223 OA
BRANCH  25  28
ATOM     28  C   UNL d   1      45.144  17.033  -3.850  0.00  0.00     0.141 C 
ATOM     29  C   UNL d   1      45.166  15.567  -4.263  0.00  0.00     0.021 C 
ENDBRANCH  25  28
ENDBRANCH  23  25
ENDBRANCH  16  19
ENDBRANCH  11  12
ENDBRANCH   1  11
BRANCH   1  30
ATOM     30  C   UNL d   1      58.185  18.062  -4.334  0.00  0.00     0.108 C 
BRANCH  30  31
ATOM     31  C   UNL d   1      58.731  16.942  -5.240  0.00  0.00    -0.026 A 
ATOM     32  C   UNL d   1      59.252  17.012  -6.559  0.00  0.00    -0.013 A 
ATOM     33  C   UNL d   1      59.483  18.170  -7.480  0.00  0.00     0.057 C 
ATOM     34  S   UNL d   1      59.710  15.469  -7.050  0.00  0.00    -0.100 SA
ATOM     35  C   UNL d   1      59.308  14.690  -5.632  0.00  0.00    -0.020 A 
ATOM     36  C   UNL d   1      59.481  13.229  -5.382  0.00  0.00     0.056 C 
ATOM     37  C   UNL d   1      58.799  15.618  -4.741  0.00  0.00     0.024 A 
ENDBRANCH  30  31
BRANCH  30  38
ATOM     38  C   UNL d   1      58.826  18.077  -2.902  0.00  0.00     0.021 C 
ATOM     39  C   UNL d   1      57.880  18.173  -1.698  0.00  0.00     0.007 C 
ENDBRANCH  30  38
ENDBRANCH   1  30
TORSDOF 10
ENDMDL
MODEL 9
REMARK VINA RESULT:    -6.398      2.775      4.517
REMARK INTER + INTRA:         -12.315
REMARK INTER:                 -10.138
REMARK INTRA:                  -2.177
REMARK UNBOUND:                -2.177
REMARK  10 active torsions:
REMARK  status: ('A' for Active; 'I' for Inactive)
REMARK    1  A    between atoms: C_3  and  C_2 
REMARK    2  A    between atoms: C_3  and  C_5 
REMARK    3  A    between atoms: C_3  and  N_4 
REMARK    4  A    between atoms: S_6  and  N_4 
REMARK    5  A    between atoms: N_4  and  C_7 
REMARK    6  A    between atoms: S_6  and  C_10 
REMARK    7  A    between atoms: C_7  and  C_18 
REMARK    8  A    between atoms: C_28  and  C_29 
REMARK    9  A    between atoms: C_33  and  S_35 
REMARK   10  A    between atoms: S_35  and  C_36 
ROOT
ATOM      1  N   UNL d   1      55.135  17.835  -3.885  0.00  0.00    -0.192 NA
ENDROOT
BRANCH   1   2
ATOM      2  S   UNL d   1      56.545  16.876  -3.327  0.00  0.00     0.263 S 
ATOM      3  O   UNL d   1      56.560  15.575  -4.144  0.00  0.00    -0.204 OA
ATOM      4  O   UNL d   1      56.103  16.348  -1.953  0.00  0.00    -0.204 OA
BRANCH   2   5
ATOM      5  C   UNL d   1      58.159  17.645  -3.172  0.00  0.00     0.183 A 
ATOM      6  C   UNL d   1      59.231  17.430  -4.007  0.00  0.00     0.136 A 
ATOM      7  N   UNL d   1      60.246  18.188  -3.561  0.00  0.00    -0.353 N 
ATOM      8  C   UNL d   1      61.584  18.289  -4.128  0.00  0.00     0.156 C 
ATOM      9  C   UNL d   1      59.782  18.842  -2.479  0.00  0.00     0.210 A 
ATOM     10  N   UNL d   1      58.498  18.529  -2.212  0.00  0.00    -0.229 NA
ENDBRANCH   2   5
ENDBRANCH   1   2
BRANCH   1  11
ATOM     11  C   UNL d   1      54.281  18.135  -2.712  0.00  0.00     0.147 C 
BRANCH  11  12
ATOM     12  C   UNL d   1      52.825  17.777  -2.949  0.00  0.00    -0.038 A 
ATOM     13  C   UNL d   1      51.751  18.548  -2.447  0.00  0.00    -0.054 A 
ATOM     14  C   UNL d   1      51.947  19.818  -1.660  0.00  0.00     0.049 C 
ATOM     15  C   UNL d   1      50.428  18.139  -2.694  0.00  0.00     0.019 A 
ATOM     16  C   UNL d   1      50.126  16.975  -3.442  0.00  0.00    -0.025 A 
ATOM     17  C   UNL d   1      51.223  16.235  -3.939  0.00  0.00     0.013 A 
ATOM     18  C   UNL d   1      52.537  16.629  -3.696  0.00  0.00     0.010 A 
BRANCH  16  19
ATOM     19  C   UNL d   1      48.694  16.542  -3.706  0.00  0.00    -0.025 A 
ATOM     20  C   UNL d   1      48.382  15.217  -4.108  0.00  0.00     0.012 A 
ATOM     21  C   UNL d   1      47.066  14.823  -4.353  0.00  0.00     0.002 A 
ATOM     22  C   UNL d   1      46.020  15.728  -4.204  0.00  0.00     0.023 A 
ATOM     23  C   UNL d   1      46.286  17.037  -3.806  0.00  0.00     0.060 A 
ATOM     24  C   UNL d   1      47.606  17.441  -3.562  0.00  0.00     0.035 A 
BRANCH  23  25
ATOM     25  S   UNL d   1      44.936  18.208  -3.615  0.00  0.00     0.175 S 
ATOM     26  O   UNL d   1      45.187  19.352  -4.610  0.00  0.00    -0.223 OA
ATOM     27  O   UNL d   1      45.184  18.980  -2.311  0.00  0.00    -0.223 OA
BRANCH  25  28
ATOM     28  C   UNL d   1      43.169  17.770  -3.692  0.00  0.00     0.141 C 
ATOM     29  C   UNL d   1      42.866  16.552  -2.828  0.00  0.00     0.021 C 
ENDBRANCH  25  28
ENDBRANCH  23  25
ENDBRANCH  16  19
ENDBRANCH  11  12
ENDBRANCH   1  11
BRANCH   1  30
ATOM     30  C   UNL d   1      55.437  19.026  -4.740  0.00  0.00     0.108 C 
BRANCH  30  31
ATOM     31  C   UNL d   1      56.234  18.721  -6.023  0.00  0.00    -0.026 A 
ATOM     32  C   UNL d   1      56.017  17.728  -7.014  0.00  0.00    -0.013 A 
ATOM     33  C   UNL d   1      54.946  16.692  -7.172  0.00  0.00     0.057 C 
ATOM     34  S   UNL d   1      57.202  17.870  -8.201  0.00  0.00    -0.100 SA
ATOM     35  C   UNL d   1      57.984  19.182  -7.533  0.00  0.00    -0.020 A 
ATOM     36  C   UNL d   1      59.180  19.854  -8.123  0.00  0.00     0.056 C 
ATOM     37  C   UNL d   1      57.341  19.538  -6.361  0.00  0.00     0.024 A 
ENDBRANCH  30  31
BRANCH  30  38
ATOM     38  C   UNL d   1      55.960  20.284  -3.963  0.00  0.00     0.021 C 
ATOM     39  C   UNL d   1      54.999  21.469  -3.795  0.00  0.00     0.007 C 
ENDBRANCH  30  38
ENDBRANCH   1  30
TORSDOF 10
ENDMDL
