REMARK  10 active torsions:
REMARK  status: ('A' for Active; 'I' for Inactive)
REMARK    1  A    between atoms: C_3  and  C_2 
REMARK    2  A    between atoms: C_3  and  C_5 
REMARK    3  A    between atoms: C_3  and  N_4 
REMARK    4  A    between atoms: S_6  and  N_4 
REMARK    5  A    between atoms: N_4  and  C_7 
REMARK    6  A    between atoms: S_6  and  C_10 
REMARK    7  A    between atoms: C_7  and  C_18 
REMARK    8  A    between atoms: C_28  and  C_29 
REMARK    9  A    between atoms: C_33  and  S_35 
REMARK   10  A    between atoms: S_35  and  C_36 
ROOT
ATOM      1  N   UNL d   1       2.818   0.072  -0.766  0.00  0.00    -0.192 NA
ENDROOT
BRANCH   1   2
ATOM      2  S   UNL d   1       1.206   0.484  -1.436  0.00  0.00     0.263 S 
ATOM      3  O   UNL d   1       1.003  -0.378  -2.691  0.00  0.00    -0.204 OA
ATOM      4  O   UNL d   1       1.419   1.868  -2.069  0.00  0.00    -0.204 OA
BRANCH   2   5
ATOM      5  C   UNL d   1      -0.232   0.542  -0.364  0.00  0.00     0.183 A 
ATOM      6  C   UNL d   1      -1.471   1.028  -0.714  0.00  0.00     0.136 A 
ATOM      7  N   UNL d   1      -2.272   0.895   0.356  0.00  0.00    -0.353 N 
ATOM      8  C   UNL d   1      -3.675   1.272   0.458  0.00  0.00     0.156 C 
ATOM      9  C   UNL d   1      -1.519   0.339   1.324  0.00  0.00     0.210 A 
ATOM     10  N   UNL d   1      -0.256   0.109   0.912  0.00  0.00    -0.229 NA
ENDBRANCH   2   5
ENDBRANCH   1   2
BRANCH   1  11
ATOM     11  C   UNL d   1       2.999   0.813   0.505  0.00  0.00     0.147 C 
BRANCH  11  12
ATOM     12  C   UNL d   1       4.440   0.802   0.982  0.00  0.00    -0.038 A 
ATOM     13  C   UNL d   1       5.497   1.394   0.253  0.00  0.00    -0.054 A 
ATOM     14  C   UNL d   1       5.290   2.124  -1.049  0.00  0.00     0.049 C 
ATOM     15  C   UNL d   1       6.810   1.325   0.753  0.00  0.00     0.019 A 
ATOM     16  C   UNL d   1       7.116   0.684   1.979  0.00  0.00    -0.025 A 
ATOM     17  C   UNL d   1       6.034   0.114   2.688  0.00  0.00     0.013 A 
ATOM     18  C   UNL d   1       4.731   0.173   2.198  0.00  0.00     0.010 A 
BRANCH  16  19
ATOM     19  C   UNL d   1       8.537   0.617   2.513  0.00  0.00    -0.025 A 
ATOM     20  C   UNL d   1       8.824   0.059   3.786  0.00  0.00     0.012 A 
ATOM     21  C   UNL d   1      10.130   0.001   4.276  0.00  0.00     0.002 A 
ATOM     22  C   UNL d   1      11.189   0.491   3.519  0.00  0.00     0.023 A 
ATOM     23  C   UNL d   1      10.947   1.042   2.262  0.00  0.00     0.060 A 
ATOM     24  C   UNL d   1       9.638   1.108   1.765  0.00  0.00     0.035 A 
BRANCH  23  25
ATOM     25  S   UNL d   1      12.314   1.678   1.284  0.00  0.00     0.175 S 
ATOM     26  O   UNL d   1      12.062   1.256  -0.172  0.00  0.00    -0.223 OA
ATOM     27  O   UNL d   1      13.533   0.788   1.572  0.00  0.00    -0.223 OA
BRANCH  25  28
ATOM     28  C   UNL d   1      12.864   3.415   1.282  0.00  0.00     0.141 C 
ATOM     29  C   UNL d   1      14.085   3.604   0.391  0.00  0.00     0.021 C 
ENDBRANCH  25  28
ENDBRANCH  23  25
ENDBRANCH  16  19
ENDBRANCH  11  12
ENDBRANCH   1  11
BRANCH   1  30
ATOM     30  C   UNL d   1       3.148  -1.385  -0.673  0.00  0.00     0.108 C 
BRANCH  30  31
ATOM     31  C   UNL d   1       3.636  -2.026  -1.986  0.00  0.00    -0.026 A 
ATOM     32  C   UNL d   1       3.881  -1.432  -3.253  0.00  0.00    -0.013 A 
ATOM     33  C   UNL d   1       3.792  -0.013  -3.723  0.00  0.00     0.057 C 
ATOM     34  S   UNL d   1       4.413  -2.619  -4.321  0.00  0.00    -0.100 SA
ATOM     35  C   UNL d   1       4.386  -3.881  -3.233  0.00  0.00    -0.020 A 
ATOM     36  C   UNL d   1       4.775  -5.288  -3.547  0.00  0.00     0.056 C 
ATOM     37  C   UNL d   1       3.954  -3.407  -2.007  0.00  0.00     0.024 A 
ENDBRANCH  30  31
BRANCH  30  38
ATOM     38  C   UNL d   1       2.093  -2.256   0.094  0.00  0.00     0.021 C 
ATOM     39  C   UNL d   1       0.875  -2.758  -0.693  0.00  0.00     0.007 C 
ENDBRANCH  30  38
ENDBRANCH   1  30
TORSDOF 10
